data_QAJJOD

_audit_creation_method RASPA-1.0
_audit_creation_date 2020-11-2
_audit_author_name 'Rocio Bueno-Perez'

_cell_length_a    26.869
_cell_length_b    26.869
_cell_length_c    26.869
_cell_angle_alpha 90
_cell_angle_beta  90
_cell_angle_gamma 90
_cell_volume      19397.9

_symmetry_cell_setting          triclinic
_symmetry_space_group_name_Hall 'P 1'
_symmetry_space_group_name_H-M  'P 1'
_symmetry_Int_Tables_number     1

_symmetry_equiv_pos_as_xyz 'x,y,z'

loop_
_atom_site_label
_atom_site_type_symbol
_atom_site_fract_x
_atom_site_fract_y
_atom_site_fract_z
_atom_site_charge
C1       C      0.682210000000     0.241460000000     0.486300000000     0          
C2       C      0.645080000000     0.205160000000     0.486200000000     0          
C3       C      0.592100000000     0.226200000000     0.465700000000     0          
C4       C      0.682210000000     0.741460000000     0.986300000000     0          
C5       C      0.645080000000     0.705160000000     0.986200000000     0          
C6       C      0.592100000000     0.726200000000     0.965700000000     0          
C7       C      0.182210000000     0.241460000000     0.986300000000     0          
C8       C      0.145080000000     0.205160000000     0.986200000000     0          
C9       C      0.092100000000     0.226200000000     0.965700000000     0          
C10      C      0.182210000000     0.741460000000     0.486300000000     0          
C11      C      0.145080000000     0.705160000000     0.486200000000     0          
C12      C      0.092100000000     0.726200000000     0.465700000000     0          
C13      C      0.317790000000     0.741460000000     0.013700000000     0          
C14      C      0.354920000000     0.705160000000     0.013800000000     0          
C15      C      0.407900000000     0.726200000000     0.034300000000     0          
C16      C      0.817790000000     0.241460000000     0.013700000000     0          
C17      C      0.854920000000     0.205160000000     0.013800000000     0          
C18      C      0.907900000000     0.226200000000     0.034300000000     0          
C19      C      0.682210000000     0.758540000000     0.513700000000     0          
C20      C      0.645080000000     0.794840000000     0.513800000000     0          
C21      C      0.182210000000     0.258540000000     0.513700000000     0          
C22      C      0.145080000000     0.294840000000     0.513800000000     0          
C23      C      0.486300000000     0.182210000000     0.741460000000     0          
C24      C      0.486200000000     0.145080000000     0.705160000000     0          
C25      C      0.486300000000     0.817790000000     0.258540000000     0          
C26      C      0.486200000000     0.854920000000     0.294840000000     0          
C27      C      0.986300000000     0.317790000000     0.258540000000     0          
C28      C      0.986200000000     0.354920000000     0.294840000000     0          
C29      C      0.965700000000     0.407900000000     0.273800000000     0          
C30      C      0.986300000000     0.817790000000     0.758540000000     0          
C31      C      0.986200000000     0.854920000000     0.794840000000     0          
C32      C      0.513700000000     0.317790000000     0.241460000000     0          
C33      C      0.513800000000     0.354920000000     0.205160000000     0          
C34      C      0.513700000000     0.817790000000     0.741460000000     0          
C35      C      0.513800000000     0.854920000000     0.705160000000     0          
C36      C      0.534300000000     0.907900000000     0.726200000000     0          
C37      C      0.013700000000     0.317790000000     0.741460000000     0          
C38      C      0.013800000000     0.354920000000     0.705160000000     0          
C39      C      0.034300000000     0.407900000000     0.726200000000     0          
C40      C      0.013700000000     0.817790000000     0.241460000000     0          
C41      C      0.013800000000     0.854920000000     0.205160000000     0          
C42      C      0.241460000000     0.486300000000     0.682210000000     0          
C43      C      0.205160000000     0.486200000000     0.645080000000     0          
C44      C      0.226200000000     0.465700000000     0.592100000000     0          
C45      C      0.741460000000     0.486300000000     0.182210000000     0          
C46      C      0.705160000000     0.486200000000     0.145080000000     0          
C47      C      0.758540000000     0.986300000000     0.817790000000     0          
C48      C      0.794840000000     0.986200000000     0.854920000000     0          
C49      C      0.773800000000     0.965700000000     0.907900000000     0          
C50      C      0.258540000000     0.986300000000     0.317790000000     0          
C51      C      0.294840000000     0.986200000000     0.354920000000     0          
C52      C      0.273800000000     0.965700000000     0.407900000000     0          
C53      C      0.241460000000     0.513700000000     0.317790000000     0          
C54      C      0.205160000000     0.513800000000     0.354920000000     0          
C55      C      0.741460000000     0.513700000000     0.817790000000     0          
C56      C      0.705160000000     0.513800000000     0.854920000000     0          
C57      C      0.758540000000     0.013700000000     0.182210000000     0          
C58      C      0.794840000000     0.013800000000     0.145080000000     0          
C59      C      0.773800000000     0.034300000000     0.092100000000     0          
C60      C      0.258540000000     0.013700000000     0.682210000000     0          
C61      C      0.294840000000     0.013800000000     0.645080000000     0          
C62      C      0.273800000000     0.034300000000     0.592100000000     0          
C63      C      0.241460000000     0.682210000000     0.513700000000     0          
C64      C      0.205160000000     0.645080000000     0.513800000000     0          
C65      C      0.241460000000     0.182210000000     0.013700000000     0          
C66      C      0.205160000000     0.145080000000     0.013800000000     0          
C67      C      0.741460000000     0.682210000000     0.013700000000     0          
C68      C      0.705160000000     0.645080000000     0.013800000000     0          
C69      C      0.741460000000     0.182210000000     0.513700000000     0          
C70      C      0.705160000000     0.145080000000     0.513800000000     0          
C71      C      0.241460000000     0.317790000000     0.486300000000     0          
C72      C      0.205160000000     0.354920000000     0.486200000000     0          
C73      C      0.226200000000     0.407900000000     0.465700000000     0          
C74      C      0.741460000000     0.817790000000     0.486300000000     0          
C75      C      0.705160000000     0.854920000000     0.486200000000     0          
C76      C      0.726200000000     0.907900000000     0.465700000000     0          
C77      C      0.758540000000     0.182210000000     0.986300000000     0          
C78      C      0.794840000000     0.145080000000     0.986200000000     0          
C79      C      0.258540000000     0.682210000000     0.986300000000     0          
C80      C      0.294840000000     0.645080000000     0.986200000000     0          
C81      C      0.682210000000     0.486300000000     0.758540000000     0          
C82      C      0.645080000000     0.486200000000     0.794840000000     0          
C83      C      0.592100000000     0.465700000000     0.773800000000     0          
C84      C      0.182210000000     0.486300000000     0.258540000000     0          
C85      C      0.145080000000     0.486200000000     0.294840000000     0          
C86      C      0.092100000000     0.465700000000     0.273800000000     0          
C87      C      0.317790000000     0.986300000000     0.741460000000     0          
C88      C      0.354920000000     0.986200000000     0.705160000000     0          
C89      C      0.407900000000     0.965700000000     0.726200000000     0          
C90      C      0.817790000000     0.986300000000     0.241460000000     0          
C91      C      0.854920000000     0.986200000000     0.205160000000     0          
C92      C      0.907900000000     0.965700000000     0.226200000000     0          
C93      C      0.317790000000     0.013700000000     0.258540000000     0          
C94      C      0.354920000000     0.013800000000     0.294840000000     0          
C95      C      0.407900000000     0.034300000000     0.273800000000     0          
C96      C      0.817790000000     0.013700000000     0.758540000000     0          
C97      C      0.854920000000     0.013800000000     0.794840000000     0          
C98      C      0.907900000000     0.034300000000     0.773800000000     0          
C99      C      0.682210000000     0.513700000000     0.241460000000     0          
C100     C      0.645080000000     0.513800000000     0.205160000000     0          
C101     C      0.592100000000     0.534300000000     0.226200000000     0          
C102     C      0.182210000000     0.513700000000     0.741460000000     0          
C103     C      0.145080000000     0.513800000000     0.705160000000     0          
C104     C      0.486300000000     0.758540000000     0.682210000000     0          
C105     C      0.486200000000     0.794840000000     0.645080000000     0          
C106     C      0.486300000000     0.258540000000     0.182210000000     0          
C107     C      0.486200000000     0.294840000000     0.145080000000     0          
C108     C      0.465700000000     0.273800000000     0.092100000000     0          
C109     C      0.986300000000     0.758540000000     0.182210000000     0          
C110     C      0.986200000000     0.794840000000     0.145080000000     0          
C111     C      0.965700000000     0.773800000000     0.092100000000     0          
C112     C      0.986300000000     0.258540000000     0.682210000000     0          
C113     C      0.986200000000     0.294840000000     0.645080000000     0          
C114     C      0.513700000000     0.241460000000     0.682210000000     0          
C115     C      0.513800000000     0.205160000000     0.645080000000     0          
C116     C      0.534300000000     0.226200000000     0.592100000000     0          
C117     C      0.513700000000     0.758540000000     0.317790000000     0          
C118     C      0.513800000000     0.794840000000     0.354920000000     0          
C119     C      0.534300000000     0.773800000000     0.407900000000     0          
C120     C      0.013700000000     0.758540000000     0.817790000000     0          
C121     C      0.013800000000     0.794840000000     0.854920000000     0          
C122     C      0.034300000000     0.773800000000     0.907900000000     0          
C123     C      0.013700000000     0.258540000000     0.317790000000     0          
C124     C      0.013800000000     0.294840000000     0.354920000000     0          
C125     C      0.317790000000     0.758540000000     0.513700000000     0          
C126     C      0.354920000000     0.794840000000     0.513800000000     0          
C127     C      0.407900000000     0.773800000000     0.534300000000     0          
C128     C      0.317790000000     0.258540000000     0.013700000000     0          
C129     C      0.354920000000     0.294840000000     0.013800000000     0          
C130     C      0.407900000000     0.273800000000     0.034300000000     0          
C131     C      0.817790000000     0.758540000000     0.013700000000     0          
C132     C      0.854920000000     0.794840000000     0.013800000000     0          
C133     C      0.907900000000     0.773800000000     0.034300000000     0          
C134     C      0.817790000000     0.258540000000     0.513700000000     0          
C135     C      0.854920000000     0.294840000000     0.513800000000     0          
C136     C      0.907900000000     0.273800000000     0.534300000000     0          
C137     C      0.682210000000     0.258540000000     0.986300000000     0          
C138     C      0.645080000000     0.294840000000     0.986200000000     0          
C139     C      0.592100000000     0.273800000000     0.965700000000     0          
C140     C      0.182210000000     0.758540000000     0.986300000000     0          
C141     C      0.145080000000     0.794840000000     0.986200000000     0          
C142     C      0.092100000000     0.773800000000     0.965700000000     0          
C143     C      0.317790000000     0.241460000000     0.486300000000     0          
C144     C      0.354920000000     0.205160000000     0.486200000000     0          
C145     C      0.817790000000     0.741460000000     0.486300000000     0          
C146     C      0.854920000000     0.705160000000     0.486200000000     0          
C147     C      0.513700000000     0.317790000000     0.758540000000     0          
C148     C      0.513800000000     0.354920000000     0.794840000000     0          
C149     C      0.513700000000     0.682210000000     0.241460000000     0          
C150     C      0.513800000000     0.645080000000     0.205160000000     0          
C151     C      0.013700000000     0.682210000000     0.741460000000     0          
C152     C      0.013800000000     0.645080000000     0.705160000000     0          
C153     C      0.013700000000     0.182210000000     0.241460000000     0          
C154     C      0.013800000000     0.145080000000     0.205160000000     0          
C155     C      0.034300000000     0.092100000000     0.226200000000     0          
C156     C      0.486300000000     0.682210000000     0.758540000000     0          
C157     C      0.486200000000     0.645080000000     0.794840000000     0          
C158     C      0.465700000000     0.592100000000     0.773800000000     0          
C159     C      0.486300000000     0.182210000000     0.258540000000     0          
C160     C      0.486200000000     0.145080000000     0.294840000000     0          
C161     C      0.986300000000     0.682210000000     0.258540000000     0          
C162     C      0.986200000000     0.645080000000     0.294840000000     0          
C163     C      0.986300000000     0.182210000000     0.758540000000     0          
C164     C      0.986200000000     0.145080000000     0.794840000000     0          
C165     C      0.965700000000     0.092100000000     0.773800000000     0          
C166     C      0.758540000000     0.513700000000     0.317790000000     0          
C167     C      0.794840000000     0.513800000000     0.354920000000     0          
C168     C      0.258540000000     0.513700000000     0.817790000000     0          
C169     C      0.294840000000     0.513800000000     0.854920000000     0          
C170     C      0.273800000000     0.534300000000     0.907900000000     0          
C171     C      0.241460000000     0.013700000000     0.182210000000     0          
C172     C      0.205160000000     0.013800000000     0.145080000000     0          
C173     C      0.226200000000     0.034300000000     0.092100000000     0          
C174     C      0.741460000000     0.013700000000     0.682210000000     0          
C175     C      0.705160000000     0.013800000000     0.645080000000     0          
C176     C      0.726200000000     0.034300000000     0.592100000000     0          
C177     C      0.758540000000     0.486300000000     0.682210000000     0          
C178     C      0.794840000000     0.486200000000     0.645080000000     0          
C179     C      0.258540000000     0.486300000000     0.182210000000     0          
C180     C      0.294840000000     0.486200000000     0.145080000000     0          
C181     C      0.241460000000     0.986300000000     0.817790000000     0          
C182     C      0.205160000000     0.986200000000     0.854920000000     0          
C183     C      0.226200000000     0.965700000000     0.907900000000     0          
C184     C      0.741460000000     0.986300000000     0.317790000000     0          
C185     C      0.705160000000     0.986200000000     0.354920000000     0          
C186     C      0.726200000000     0.965700000000     0.407900000000     0          
C187     C      0.758540000000     0.317790000000     0.486300000000     0          
C188     C      0.794840000000     0.354920000000     0.486200000000     0          
C189     C      0.758540000000     0.817790000000     0.986300000000     0          
C190     C      0.794840000000     0.854920000000     0.986200000000     0          
C191     C      0.258540000000     0.317790000000     0.986300000000     0          
C192     C      0.294840000000     0.354920000000     0.986200000000     0          
C193     C      0.258540000000     0.817790000000     0.486300000000     0          
C194     C      0.294840000000     0.854920000000     0.486200000000     0          
C195     C      0.758540000000     0.682210000000     0.513700000000     0          
C196     C      0.794840000000     0.645080000000     0.513800000000     0          
C197     C      0.773800000000     0.592100000000     0.534300000000     0          
C198     C      0.258540000000     0.182210000000     0.513700000000     0          
C199     C      0.294840000000     0.145080000000     0.513800000000     0          
C200     C      0.273800000000     0.092100000000     0.534300000000     0          
C201     C      0.241460000000     0.817790000000     0.013700000000     0          
C202     C      0.205160000000     0.854920000000     0.013800000000     0          
C203     C      0.741460000000     0.317790000000     0.013700000000     0          
C204     C      0.705160000000     0.354920000000     0.013800000000     0          
C205     C      0.317790000000     0.513700000000     0.241460000000     0          
C206     C      0.354920000000     0.513800000000     0.205160000000     0          
C207     C      0.407900000000     0.534300000000     0.226200000000     0          
C208     C      0.817790000000     0.513700000000     0.741460000000     0          
C209     C      0.854920000000     0.513800000000     0.705160000000     0          
C210     C      0.907900000000     0.534300000000     0.726200000000     0          
C211     C      0.682210000000     0.013700000000     0.258540000000     0          
C212     C      0.645080000000     0.013800000000     0.294840000000     0          
C213     C      0.592100000000     0.034300000000     0.273800000000     0          
C214     C      0.182210000000     0.013700000000     0.758540000000     0          
C215     C      0.145080000000     0.013800000000     0.794840000000     0          
C216     C      0.092100000000     0.034300000000     0.773800000000     0          
C217     C      0.682210000000     0.986300000000     0.741460000000     0          
C218     C      0.645080000000     0.986200000000     0.705160000000     0          
C219     C      0.592100000000     0.965700000000     0.726200000000     0          
C220     C      0.182210000000     0.986300000000     0.241460000000     0          
C221     C      0.145080000000     0.986200000000     0.205160000000     0          
C222     C      0.092100000000     0.965700000000     0.226200000000     0          
C223     C      0.317790000000     0.486300000000     0.758540000000     0          
C224     C      0.354920000000     0.486200000000     0.794840000000     0          
C225     C      0.817790000000     0.486300000000     0.258540000000     0          
C226     C      0.854920000000     0.486200000000     0.294840000000     0          
C227     C      0.907900000000     0.465700000000     0.273800000000     0          
C228     C      0.513700000000     0.241460000000     0.317790000000     0          
C229     C      0.513800000000     0.205160000000     0.354920000000     0          
C230     C      0.534300000000     0.226200000000     0.407900000000     0          
C231     C      0.513700000000     0.741460000000     0.817790000000     0          
C232     C      0.513800000000     0.705160000000     0.854920000000     0          
C233     C      0.013700000000     0.241460000000     0.817790000000     0          
C234     C      0.013800000000     0.205160000000     0.854920000000     0          
C235     C      0.013700000000     0.741460000000     0.317790000000     0          
C236     C      0.013800000000     0.705160000000     0.354920000000     0          
C237     C      0.034300000000     0.726200000000     0.407900000000     0          
C238     C      0.486300000000     0.258540000000     0.817790000000     0          
C239     C      0.486200000000     0.294840000000     0.854920000000     0          
C240     C      0.465700000000     0.273800000000     0.907900000000     0          
C241     C      0.486300000000     0.741460000000     0.182210000000     0          
C242     C      0.486200000000     0.705160000000     0.145080000000     0          
C243     C      0.465700000000     0.726200000000     0.092100000000     0          
C244     C      0.986300000000     0.241460000000     0.182210000000     0          
C245     C      0.986200000000     0.205160000000     0.145080000000     0          
C246     C      0.986300000000     0.741460000000     0.682210000000     0          
C247     C      0.986200000000     0.705160000000     0.645080000000     0          
C248     C      0.965700000000     0.726200000000     0.592100000000     0          
Zr249    Zr     0.500000000000     0.092040000000     0.500000000000     0          
Zr250    Zr     0.500000000000     0.592040000000     0.000000000000     0          
Zr251    Zr     0.000000000000     0.092040000000     0.000000000000     0          
Zr252    Zr     0.000000000000     0.592040000000     0.500000000000     0          
Zr253    Zr     0.500000000000     0.907960000000     0.500000000000     0          
Zr254    Zr     0.500000000000     0.407960000000     0.000000000000     0          
Zr255    Zr     0.000000000000     0.907960000000     0.000000000000     0          
Zr256    Zr     0.000000000000     0.407960000000     0.500000000000     0          
Zr257    Zr     0.500000000000     0.500000000000     0.092040000000     0          
Zr258    Zr     0.500000000000     0.000000000000     0.592040000000     0          
Zr259    Zr     0.000000000000     0.500000000000     0.592040000000     0          
Zr260    Zr     0.000000000000     0.000000000000     0.092040000000     0          
Zr261    Zr     0.500000000000     0.500000000000     0.907960000000     0          
Zr262    Zr     0.500000000000     0.000000000000     0.407960000000     0          
Zr263    Zr     0.000000000000     0.500000000000     0.407960000000     0          
Zr264    Zr     0.000000000000     0.000000000000     0.907960000000     0          
Zr265    Zr     0.092040000000     0.500000000000     0.500000000000     0          
Zr266    Zr     0.092040000000     0.000000000000     0.000000000000     0          
Zr267    Zr     0.592040000000     0.500000000000     0.000000000000     0          
Zr268    Zr     0.592040000000     0.000000000000     0.500000000000     0          
Zr269    Zr     0.907960000000     0.500000000000     0.500000000000     0          
Zr270    Zr     0.907960000000     0.000000000000     0.000000000000     0          
Zr271    Zr     0.407960000000     0.500000000000     0.000000000000     0          
Zr272    Zr     0.407960000000     0.000000000000     0.500000000000     0          
O273     O      0.572360000000     0.131710000000     0.500000000000     0          
O274     O      0.572360000000     0.631710000000     0.000000000000     0          
O275     O      0.072360000000     0.131710000000     0.000000000000     0          
O276     O      0.072360000000     0.631710000000     0.500000000000     0          
O277     O      0.427640000000     0.868290000000     0.500000000000     0          
O278     O      0.427640000000     0.368290000000     0.000000000000     0          
O279     O      0.927640000000     0.868290000000     0.000000000000     0          
O280     O      0.927640000000     0.368290000000     0.500000000000     0          
O281     O      0.427640000000     0.131710000000     0.500000000000     0          
O282     O      0.427640000000     0.631710000000     0.000000000000     0          
O283     O      0.927640000000     0.131710000000     0.000000000000     0          
O284     O      0.927640000000     0.631710000000     0.500000000000     0          
O285     O      0.572360000000     0.868290000000     0.500000000000     0          
O286     O      0.572360000000     0.368290000000     0.000000000000     0          
O287     O      0.072360000000     0.868290000000     0.000000000000     0          
O288     O      0.072360000000     0.368290000000     0.500000000000     0          
O289     O      0.500000000000     0.572360000000     0.131710000000     0          
O290     O      0.500000000000     0.072360000000     0.631710000000     0          
O291     O      0.000000000000     0.572360000000     0.631710000000     0          
O292     O      0.000000000000     0.072360000000     0.131710000000     0          
O293     O      0.500000000000     0.427640000000     0.868290000000     0          
O294     O      0.500000000000     0.927640000000     0.368290000000     0          
O295     O      0.000000000000     0.427640000000     0.368290000000     0          
O296     O      0.000000000000     0.927640000000     0.868290000000     0          
O297     O      0.500000000000     0.427640000000     0.131710000000     0          
O298     O      0.500000000000     0.927640000000     0.631710000000     0          
O299     O      0.000000000000     0.427640000000     0.631710000000     0          
O300     O      0.000000000000     0.927640000000     0.131710000000     0          
O301     O      0.500000000000     0.572360000000     0.868290000000     0          
O302     O      0.500000000000     0.072360000000     0.368290000000     0          
O303     O      0.000000000000     0.572360000000     0.368290000000     0          
O304     O      0.000000000000     0.072360000000     0.868290000000     0          
O305     O      0.131710000000     0.500000000000     0.572360000000     0          
O306     O      0.131710000000     0.000000000000     0.072360000000     0          
O307     O      0.631710000000     0.500000000000     0.072360000000     0          
O308     O      0.631710000000     0.000000000000     0.572360000000     0          
O309     O      0.868290000000     0.500000000000     0.427640000000     0          
O310     O      0.868290000000     0.000000000000     0.927640000000     0          
O311     O      0.368290000000     0.500000000000     0.927640000000     0          
O312     O      0.368290000000     0.000000000000     0.427640000000     0          
O313     O      0.131710000000     0.500000000000     0.427640000000     0          
O314     O      0.131710000000     0.000000000000     0.927640000000     0          
O315     O      0.631710000000     0.500000000000     0.927640000000     0          
O316     O      0.631710000000     0.000000000000     0.427640000000     0          
O317     O      0.868290000000     0.500000000000     0.572360000000     0          
O318     O      0.868290000000     0.000000000000     0.072360000000     0          
O319     O      0.368290000000     0.500000000000     0.072360000000     0          
O320     O      0.368290000000     0.000000000000     0.572360000000     0          
O321     O      0.131710000000     0.572360000000     0.500000000000     0          
O322     O      0.131710000000     0.072360000000     0.000000000000     0          
O323     O      0.631710000000     0.572360000000     0.000000000000     0          
O324     O      0.631710000000     0.072360000000     0.500000000000     0          
O325     O      0.868290000000     0.427640000000     0.500000000000     0          
O326     O      0.868290000000     0.927640000000     0.000000000000     0          
O327     O      0.368290000000     0.427640000000     0.000000000000     0          
O328     O      0.368290000000     0.927640000000     0.500000000000     0          
O329     O      0.131710000000     0.427640000000     0.500000000000     0          
O330     O      0.131710000000     0.927640000000     0.000000000000     0          
O331     O      0.631710000000     0.427640000000     0.000000000000     0          
O332     O      0.631710000000     0.927640000000     0.500000000000     0          
O333     O      0.868290000000     0.572360000000     0.500000000000     0          
O334     O      0.868290000000     0.072360000000     0.000000000000     0          
O335     O      0.368290000000     0.572360000000     0.000000000000     0          
O336     O      0.368290000000     0.072360000000     0.500000000000     0          
O337     O      0.572360000000     0.500000000000     0.868290000000     0          
O338     O      0.572360000000     0.000000000000     0.368290000000     0          
O339     O      0.072360000000     0.500000000000     0.368290000000     0          
O340     O      0.072360000000     0.000000000000     0.868290000000     0          
O341     O      0.427640000000     0.500000000000     0.131710000000     0          
O342     O      0.427640000000     0.000000000000     0.631710000000     0          
O343     O      0.927640000000     0.500000000000     0.631710000000     0          
O344     O      0.927640000000     0.000000000000     0.131710000000     0          
O345     O      0.427640000000     0.500000000000     0.868290000000     0          
O346     O      0.427640000000     0.000000000000     0.368290000000     0          
O347     O      0.927640000000     0.500000000000     0.368290000000     0          
O348     O      0.927640000000     0.000000000000     0.868290000000     0          
O349     O      0.572360000000     0.500000000000     0.131710000000     0          
O350     O      0.572360000000     0.000000000000     0.631710000000     0          
O351     O      0.072360000000     0.500000000000     0.631710000000     0          
O352     O      0.072360000000     0.000000000000     0.131710000000     0          
O353     O      0.500000000000     0.131710000000     0.427640000000     0          
O354     O      0.500000000000     0.631710000000     0.927640000000     0          
O355     O      0.000000000000     0.131710000000     0.927640000000     0          
O356     O      0.000000000000     0.631710000000     0.427640000000     0          
O357     O      0.500000000000     0.868290000000     0.572360000000     0          
O358     O      0.500000000000     0.368290000000     0.072360000000     0          
O359     O      0.000000000000     0.868290000000     0.072360000000     0          
O360     O      0.000000000000     0.368290000000     0.572360000000     0          
O361     O      0.500000000000     0.131710000000     0.572360000000     0          
O362     O      0.500000000000     0.631710000000     0.072360000000     0          
O363     O      0.000000000000     0.131710000000     0.072360000000     0          
O364     O      0.000000000000     0.631710000000     0.572360000000     0          
O365     O      0.500000000000     0.868290000000     0.427640000000     0          
O366     O      0.500000000000     0.368290000000     0.927640000000     0          
O367     O      0.000000000000     0.868290000000     0.927640000000     0          
O368     O      0.000000000000     0.368290000000     0.427640000000     0          
C369     C      0.617240000000     0.117240000000     0.500000000000     0          
C370     C      0.656670000000     0.156670000000     0.500000000000     0          
C371     C      0.730390000000     0.230390000000     0.500000000000     0          
C372     C      0.617240000000     0.617240000000     0.000000000000     0          
C373     C      0.656670000000     0.656670000000     0.000000000000     0          
C374     C      0.730390000000     0.730390000000     0.000000000000     0          
C375     C      0.382760000000     0.882760000000     0.500000000000     0          
C376     C      0.343330000000     0.843330000000     0.500000000000     0          
C377     C      0.269610000000     0.769610000000     0.500000000000     0          
C378     C      0.382760000000     0.382760000000     0.000000000000     0          
C379     C      0.343330000000     0.343330000000     0.000000000000     0          
C380     C      0.269610000000     0.269610000000     0.000000000000     0          
C381     C      0.382760000000     0.117240000000     0.500000000000     0          
C382     C      0.343330000000     0.156670000000     0.500000000000     0          
C383     C      0.269610000000     0.230390000000     0.500000000000     0          
C384     C      0.382760000000     0.617240000000     0.000000000000     0          
C385     C      0.343330000000     0.656670000000     0.000000000000     0          
C386     C      0.269610000000     0.730390000000     0.000000000000     0          
C387     C      0.617240000000     0.882760000000     0.500000000000     0          
C388     C      0.656670000000     0.843330000000     0.500000000000     0          
C389     C      0.730390000000     0.769610000000     0.500000000000     0          
C390     C      0.617240000000     0.382760000000     0.000000000000     0          
C391     C      0.656670000000     0.343330000000     0.000000000000     0          
C392     C      0.730390000000     0.269610000000     0.000000000000     0          
C393     C      0.500000000000     0.617240000000     0.117240000000     0          
C394     C      0.500000000000     0.656670000000     0.156670000000     0          
C395     C      0.500000000000     0.730390000000     0.230390000000     0          
C396     C      0.000000000000     0.617240000000     0.617240000000     0          
C397     C      0.000000000000     0.656670000000     0.656670000000     0          
C398     C      0.000000000000     0.730390000000     0.730390000000     0          
C399     C      0.500000000000     0.382760000000     0.882760000000     0          
C400     C      0.500000000000     0.343330000000     0.843330000000     0          
C401     C      0.500000000000     0.269610000000     0.769610000000     0          
C402     C      0.000000000000     0.382760000000     0.382760000000     0          
C403     C      0.000000000000     0.343330000000     0.343330000000     0          
C404     C      0.000000000000     0.269610000000     0.269610000000     0          
C405     C      0.500000000000     0.382760000000     0.117240000000     0          
C406     C      0.500000000000     0.343330000000     0.156670000000     0          
C407     C      0.500000000000     0.269610000000     0.230390000000     0          
C408     C      0.000000000000     0.382760000000     0.617240000000     0          
C409     C      0.000000000000     0.343330000000     0.656670000000     0          
C410     C      0.000000000000     0.269610000000     0.730390000000     0          
C411     C      0.500000000000     0.617240000000     0.882760000000     0          
C412     C      0.500000000000     0.656670000000     0.843330000000     0          
C413     C      0.500000000000     0.730390000000     0.769610000000     0          
C414     C      0.000000000000     0.617240000000     0.382760000000     0          
C415     C      0.000000000000     0.656670000000     0.343330000000     0          
C416     C      0.000000000000     0.730390000000     0.269610000000     0          
C417     C      0.117240000000     0.500000000000     0.617240000000     0          
C418     C      0.156670000000     0.500000000000     0.656670000000     0          
C419     C      0.230390000000     0.500000000000     0.730390000000     0          
C420     C      0.117240000000     0.000000000000     0.117240000000     0          
C421     C      0.156670000000     0.000000000000     0.156670000000     0          
C422     C      0.230390000000     0.000000000000     0.230390000000     0          
C423     C      0.882760000000     0.500000000000     0.382760000000     0          
C424     C      0.843330000000     0.500000000000     0.343330000000     0          
C425     C      0.769610000000     0.500000000000     0.269610000000     0          
C426     C      0.882760000000     0.000000000000     0.882760000000     0          
C427     C      0.843330000000     0.000000000000     0.843330000000     0          
C428     C      0.769610000000     0.000000000000     0.769610000000     0          
C429     C      0.117240000000     0.500000000000     0.382760000000     0          
C430     C      0.156670000000     0.500000000000     0.343330000000     0          
C431     C      0.230390000000     0.500000000000     0.269610000000     0          
C432     C      0.117240000000     0.000000000000     0.882760000000     0          
C433     C      0.156670000000     0.000000000000     0.843330000000     0          
C434     C      0.230390000000     0.000000000000     0.769610000000     0          
C435     C      0.882760000000     0.500000000000     0.617240000000     0          
C436     C      0.843330000000     0.500000000000     0.656670000000     0          
C437     C      0.769610000000     0.500000000000     0.730390000000     0          
C438     C      0.882760000000     0.000000000000     0.117240000000     0          
C439     C      0.843330000000     0.000000000000     0.156670000000     0          
C440     C      0.769610000000     0.000000000000     0.230390000000     0          
C441     C      0.117240000000     0.617240000000     0.500000000000     0          
C442     C      0.156670000000     0.656670000000     0.500000000000     0          
C443     C      0.230390000000     0.730390000000     0.500000000000     0          
C444     C      0.117240000000     0.117240000000     0.000000000000     0          
C445     C      0.156670000000     0.156670000000     0.000000000000     0          
C446     C      0.230390000000     0.230390000000     0.000000000000     0          
C447     C      0.882760000000     0.382760000000     0.500000000000     0          
C448     C      0.843330000000     0.343330000000     0.500000000000     0          
C449     C      0.769610000000     0.269610000000     0.500000000000     0          
C450     C      0.882760000000     0.882760000000     0.000000000000     0          
C451     C      0.843330000000     0.843330000000     0.000000000000     0          
C452     C      0.769610000000     0.769610000000     0.000000000000     0          
C453     C      0.117240000000     0.382760000000     0.500000000000     0          
C454     C      0.156670000000     0.343330000000     0.500000000000     0          
C455     C      0.230390000000     0.269610000000     0.500000000000     0          
C456     C      0.117240000000     0.882760000000     0.000000000000     0          
C457     C      0.156670000000     0.843330000000     0.000000000000     0          
C458     C      0.230390000000     0.769610000000     0.000000000000     0          
C459     C      0.882760000000     0.617240000000     0.500000000000     0          
C460     C      0.843330000000     0.656670000000     0.500000000000     0          
C461     C      0.769610000000     0.730390000000     0.500000000000     0          
C462     C      0.882760000000     0.117240000000     0.000000000000     0          
C463     C      0.843330000000     0.156670000000     0.000000000000     0          
C464     C      0.769610000000     0.230390000000     0.000000000000     0          
C465     C      0.617240000000     0.500000000000     0.882760000000     0          
C466     C      0.656670000000     0.500000000000     0.843330000000     0          
C467     C      0.730390000000     0.500000000000     0.769610000000     0          
C468     C      0.617240000000     0.000000000000     0.382760000000     0          
C469     C      0.656670000000     0.000000000000     0.343330000000     0          
C470     C      0.730390000000     0.000000000000     0.269610000000     0          
C471     C      0.382760000000     0.500000000000     0.117240000000     0          
C472     C      0.343330000000     0.500000000000     0.156670000000     0          
C473     C      0.269610000000     0.500000000000     0.230390000000     0          
C474     C      0.382760000000     0.000000000000     0.617240000000     0          
C475     C      0.343330000000     0.000000000000     0.656670000000     0          
C476     C      0.269610000000     0.000000000000     0.730390000000     0          
C477     C      0.382760000000     0.500000000000     0.882760000000     0          
C478     C      0.343330000000     0.500000000000     0.843330000000     0          
C479     C      0.269610000000     0.500000000000     0.769610000000     0          
C480     C      0.382760000000     0.000000000000     0.382760000000     0          
C481     C      0.343330000000     0.000000000000     0.343330000000     0          
C482     C      0.269610000000     0.000000000000     0.269610000000     0          
C483     C      0.617240000000     0.500000000000     0.117240000000     0          
C484     C      0.656670000000     0.500000000000     0.156670000000     0          
C485     C      0.730390000000     0.500000000000     0.230390000000     0          
C486     C      0.617240000000     0.000000000000     0.617240000000     0          
C487     C      0.656670000000     0.000000000000     0.656670000000     0          
C488     C      0.730390000000     0.000000000000     0.730390000000     0          
C489     C      0.500000000000     0.117240000000     0.382760000000     0          
C490     C      0.500000000000     0.156670000000     0.343330000000     0          
C491     C      0.500000000000     0.230390000000     0.269610000000     0          
C492     C      0.000000000000     0.117240000000     0.882760000000     0          
C493     C      0.000000000000     0.156670000000     0.843330000000     0          
C494     C      0.000000000000     0.230390000000     0.769610000000     0          
C495     C      0.500000000000     0.882760000000     0.617240000000     0          
C496     C      0.500000000000     0.843330000000     0.656670000000     0          
C497     C      0.500000000000     0.769610000000     0.730390000000     0          
C498     C      0.000000000000     0.882760000000     0.117240000000     0          
C499     C      0.000000000000     0.843330000000     0.156670000000     0          
C500     C      0.000000000000     0.769610000000     0.230390000000     0          
C501     C      0.500000000000     0.117240000000     0.617240000000     0          
C502     C      0.500000000000     0.156670000000     0.656670000000     0          
C503     C      0.500000000000     0.230390000000     0.730390000000     0          
C504     C      0.000000000000     0.117240000000     0.117240000000     0          
C505     C      0.000000000000     0.156670000000     0.156670000000     0          
C506     C      0.000000000000     0.230390000000     0.230390000000     0          
C507     C      0.500000000000     0.882760000000     0.382760000000     0          
C508     C      0.500000000000     0.843330000000     0.343330000000     0          
C509     C      0.500000000000     0.769610000000     0.269610000000     0          
C510     C      0.000000000000     0.882760000000     0.882760000000     0          
C511     C      0.000000000000     0.843330000000     0.843330000000     0          
C512     C      0.000000000000     0.769610000000     0.769610000000     0          
O513     O      0.448110000000     0.051890000000     0.448110000000     0          
O514     O      0.551890000000     0.948110000000     0.448110000000     0          
O515     O      0.051890000000     0.448110000000     0.448110000000     0          
O516     O      0.551890000000     0.051890000000     0.551890000000     0          
O517     O      0.051890000000     0.051890000000     0.051890000000     0          
O518     O      0.448110000000     0.948110000000     0.551890000000     0          
O519     O      0.448110000000     0.448110000000     0.051890000000     0          
O520     O      0.448110000000     0.551890000000     0.948110000000     0          
O521     O      0.551890000000     0.551890000000     0.051890000000     0          
O522     O      0.551890000000     0.448110000000     0.948110000000     0          
O523     O      0.051890000000     0.948110000000     0.948110000000     0          
O524     O      0.948110000000     0.448110000000     0.551890000000     0          
O525     O      0.948110000000     0.948110000000     0.051890000000     0          
O526     O      0.051890000000     0.551890000000     0.551890000000     0          
O527     O      0.948110000000     0.551890000000     0.448110000000     0          
O528     O      0.948110000000     0.051890000000     0.948110000000     0          
O529     O      0.051890000000     0.448110000000     0.551890000000     0          
O530     O      0.051890000000     0.948110000000     0.051890000000     0          
O531     O      0.948110000000     0.551890000000     0.551890000000     0          
O532     O      0.948110000000     0.051890000000     0.051890000000     0          
O533     O      0.448110000000     0.551890000000     0.051890000000     0          
O534     O      0.448110000000     0.051890000000     0.551890000000     0          
O535     O      0.051890000000     0.551890000000     0.448110000000     0          
O536     O      0.051890000000     0.051890000000     0.948110000000     0          
O537     O      0.948110000000     0.448110000000     0.448110000000     0          
O538     O      0.948110000000     0.948110000000     0.948110000000     0          
O539     O      0.448110000000     0.448110000000     0.948110000000     0          
O540     O      0.551890000000     0.448110000000     0.051890000000     0          
O541     O      0.551890000000     0.551890000000     0.948110000000     0          
O542     O      0.551890000000     0.051890000000     0.448110000000     0          
O543     O      0.448110000000     0.948110000000     0.448110000000     0          
O544     O      0.551890000000     0.948110000000     0.551890000000     0          
O545     O      0.856900000000     0.143100000000     0.856900000000     0          
C546     C      0.879000000000     0.121000000000     0.879000000000     0          
H547     H      0.725790000000     0.907820000000     0.423270000000     0          
H548     H      0.765930000000     0.913610000000     0.479450000000     0          
H549     H      0.701620000000     0.939380000000     0.480020000000     0          
H550     H      0.803710000000     0.573080000000     0.557620000000     0          
H551     H      0.763570000000     0.567280000000     0.501450000000     0          
H552     H      0.739390000000     0.598840000000     0.558190000000     0          
H553     H      0.605490000000     0.784660000000     0.525160000000     0          
H554     H      0.672990000000     0.718730000000     0.525110000000     0          
H555     H      0.781270000000     0.827010000000     0.474890000000     0          
H556     H      0.827010000000     0.781270000000     0.474890000000     0          
H557     H      0.894510000000     0.715340000000     0.474840000000     0          
H558     H      0.718730000000     0.672990000000     0.525110000000     0          
H559     H      0.574010000000     0.787390000000     0.414100000000     0          
H560     H      0.533780000000     0.731380000000     0.407430000000     0          
H561     H      0.509470000000     0.787900000000     0.439280000000     0          
H562     H      0.455610000000     0.693600000000     0.066890000000     0          
H563     H      0.495840000000     0.749610000000     0.073560000000     0          
H564     H      0.431290000000     0.750120000000     0.098740000000     0          
H565     H      0.474890000000     0.827010000000     0.218730000000     0          
H566     H      0.474840000000     0.894510000000     0.284660000000     0          
H567     H      0.525110000000     0.718730000000     0.327010000000     0          
H568     H      0.525110000000     0.672990000000     0.281270000000     0          
H569     H      0.525160000000     0.605490000000     0.215340000000     0          
H570     H      0.474890000000     0.781270000000     0.172990000000     0          
H571     H      0.553000000000     0.929340000000     0.694720000000     0          
H572     H      0.562420000000     0.900880000000     0.757190000000     0          
H573     H      0.501840000000     0.930580000000     0.741430000000     0          
H574     H      0.484250000000     0.560350000000     0.794960000000     0          
H575     H      0.474830000000     0.588800000000     0.732500000000     0          
H576     H      0.423670000000     0.590050000000     0.779200000000     0          
H577     H      0.525110000000     0.827010000000     0.781270000000     0          
H578     H      0.474890000000     0.718730000000     0.672990000000     0          
H579     H      0.474840000000     0.784660000000     0.605490000000     0          
H580     H      0.474890000000     0.672990000000     0.718730000000     0          
H581     H      0.525110000000     0.781270000000     0.827010000000     0          
H582     H      0.525160000000     0.715340000000     0.894510000000     0          
H583     H      0.474830000000     0.232500000000     0.088800000000     0          
H584     H      0.484250000000     0.294960000000     0.060350000000     0          
H585     H      0.423670000000     0.279200000000     0.090050000000     0          
H586     H      0.562420000000     0.257190000000     0.400880000000     0          
H587     H      0.553000000000     0.194720000000     0.429340000000     0          
H588     H      0.501840000000     0.241430000000     0.430580000000     0          
H589     H      0.525110000000     0.327010000000     0.281270000000     0          
H590     H      0.525160000000     0.394510000000     0.215340000000     0          
H591     H      0.474890000000     0.218730000000     0.172990000000     0          
H592     H      0.474890000000     0.172990000000     0.218730000000     0          
H593     H      0.474840000000     0.105490000000     0.284660000000     0          
H594     H      0.525110000000     0.281270000000     0.327010000000     0          
H595     H      0.562790000000     0.195630000000     0.468280000000     0          
H596     H      0.596380000000     0.238310000000     0.425260000000     0          
H597     H      0.580020000000     0.259400000000     0.489200000000     0          
H598     H      0.936920000000     0.276080000000     0.503430000000     0          
H599     H      0.903330000000     0.233410000000     0.546450000000     0          
H600     H      0.920560000000     0.297170000000     0.567370000000     0          
H601     H      0.672990000000     0.281270000000     0.474890000000     0          
H602     H      0.781270000000     0.172990000000     0.525110000000     0          
H603     H      0.715340000000     0.105490000000     0.525160000000     0          
H604     H      0.827010000000     0.218730000000     0.525110000000     0          
H605     H      0.718730000000     0.327010000000     0.474890000000     0          
H606     H      0.784660000000     0.394510000000     0.474840000000     0          
H607     H      0.504160000000     0.249610000000     0.573560000000     0          
H608     H      0.544390000000     0.193600000000     0.566890000000     0          
H609     H      0.568710000000     0.250120000000     0.598740000000     0          
H610     H      0.466220000000     0.231380000000     0.907430000000     0          
H611     H      0.425990000000     0.287390000000     0.914100000000     0          
H612     H      0.490530000000     0.287900000000     0.939280000000     0          
H613     H      0.474890000000     0.172990000000     0.781270000000     0          
H614     H      0.474840000000     0.105490000000     0.715340000000     0          
H615     H      0.525110000000     0.281270000000     0.672990000000     0          
H616     H      0.525110000000     0.327010000000     0.718730000000     0          
H617     H      0.525160000000     0.394510000000     0.784660000000     0          
H618     H      0.474890000000     0.218730000000     0.827010000000     0          
H619     H      0.984250000000     0.060350000000     0.794960000000     0          
H620     H      0.974830000000     0.088800000000     0.732500000000     0          
H621     H      0.923670000000     0.090050000000     0.779200000000     0          
H622     H      0.053000000000     0.429340000000     0.694720000000     0          
H623     H      0.062420000000     0.400880000000     0.757190000000     0          
H624     H      0.001840000000     0.430580000000     0.741430000000     0          
H625     H      0.974890000000     0.218730000000     0.672990000000     0          
H626     H      0.974840000000     0.284660000000     0.605490000000     0          
H627     H      0.974890000000     0.172990000000     0.718730000000     0          
H628     H      0.025110000000     0.327010000000     0.781270000000     0          
H629     H      0.025110000000     0.281270000000     0.827010000000     0          
H630     H      0.025160000000     0.215340000000     0.894510000000     0          
H631     H      0.925990000000     0.414100000000     0.287390000000     0          
H632     H      0.966220000000     0.407430000000     0.231380000000     0          
H633     H      0.990530000000     0.439280000000     0.287900000000     0          
H634     H      0.044390000000     0.066890000000     0.193600000000     0          
H635     H      0.004160000000     0.073560000000     0.249610000000     0          
H636     H      0.068710000000     0.098740000000     0.250120000000     0          
H637     H      0.974890000000     0.327010000000     0.218730000000     0          
H638     H      0.974890000000     0.281270000000     0.172990000000     0          
H639     H      0.974840000000     0.215340000000     0.105490000000     0          
H640     H      0.025110000000     0.218730000000     0.327010000000     0          
H641     H      0.025160000000     0.284660000000     0.394510000000     0          
H642     H      0.025110000000     0.172990000000     0.281270000000     0          
H643     H      0.955610000000     0.693600000000     0.566890000000     0          
H644     H      0.995840000000     0.749610000000     0.573560000000     0          
H645     H      0.931290000000     0.750120000000     0.598740000000     0          
H646     H      0.074010000000     0.787390000000     0.914100000000     0          
H647     H      0.033780000000     0.731380000000     0.907430000000     0          
H648     H      0.009470000000     0.787900000000     0.939280000000     0          
H649     H      0.974890000000     0.827010000000     0.718730000000     0          
H650     H      0.974840000000     0.894510000000     0.784660000000     0          
H651     H      0.974890000000     0.781270000000     0.672990000000     0          
H652     H      0.025110000000     0.718730000000     0.827010000000     0          
H653     H      0.025110000000     0.672990000000     0.781270000000     0          
H654     H      0.025160000000     0.605490000000     0.715340000000     0          
H655     H      0.974830000000     0.732500000000     0.088800000000     0          
H656     H      0.984250000000     0.794960000000     0.060350000000     0          
H657     H      0.923670000000     0.779200000000     0.090050000000     0          
H658     H      0.062420000000     0.757190000000     0.400880000000     0          
H659     H      0.053000000000     0.694720000000     0.429340000000     0          
H660     H      0.001840000000     0.741430000000     0.430580000000     0          
H661     H      0.974890000000     0.718730000000     0.172990000000     0          
H662     H      0.974890000000     0.672990000000     0.218730000000     0          
H663     H      0.974840000000     0.605490000000     0.284660000000     0          
H664     H      0.025110000000     0.827010000000     0.281270000000     0          
H665     H      0.025160000000     0.894510000000     0.215340000000     0          
H666     H      0.025110000000     0.781270000000     0.327010000000     0          
H667     H      0.225790000000     0.407820000000     0.423270000000     0          
H668     H      0.265930000000     0.413610000000     0.479450000000     0          
H669     H      0.201620000000     0.439380000000     0.480020000000     0          
H670     H      0.303710000000     0.073080000000     0.557620000000     0          
H671     H      0.263570000000     0.067280000000     0.501450000000     0          
H672     H      0.239390000000     0.098840000000     0.558190000000     0          
H673     H      0.062790000000     0.195630000000     0.968280000000     0          
H674     H      0.096380000000     0.238310000000     0.925260000000     0          
H675     H      0.080020000000     0.259400000000     0.989200000000     0          
H676     H      0.436920000000     0.276080000000     0.003430000000     0          
H677     H      0.403330000000     0.233410000000     0.046450000000     0          
H678     H      0.420560000000     0.297170000000     0.067370000000     0          
H679     H      0.207640000000     0.486880000000     0.560360000000     0          
H680     H      0.217500000000     0.424330000000     0.588480000000     0          
H681     H      0.268190000000     0.471530000000     0.590350000000     0          
H682     H      0.255280000000     0.502500000000     0.929020000000     0          
H683     H      0.245420000000     0.565050000000     0.900900000000     0          
H684     H      0.305970000000     0.549700000000     0.930890000000     0          
H685     H      0.089620000000     0.732100000000     0.973120000000     0          
H686     H      0.089240000000     0.780940000000     0.923970000000     0          
H687     H      0.060340000000     0.793630000000     0.985650000000     0          
H688     H      0.429780000000     0.743160000000     0.002150000000     0          
H689     H      0.430160000000     0.694320000000     0.051290000000     0          
H690     H      0.400870000000     0.755850000000     0.063820000000     0          
H691     H      0.219020000000     0.828010000000     0.474720000000     0          
H692     H      0.062790000000     0.695630000000     0.468280000000     0          
H693     H      0.096380000000     0.738310000000     0.425260000000     0          
H694     H      0.080020000000     0.759400000000     0.489200000000     0          
H695     H      0.436920000000     0.776080000000     0.503430000000     0          
H696     H      0.403330000000     0.733410000000     0.546450000000     0          
H697     H      0.420560000000     0.797170000000     0.567370000000     0          
H698     H      0.562790000000     0.695630000000     0.968280000000     0          
H699     H      0.596380000000     0.738310000000     0.925260000000     0          
H700     H      0.580020000000     0.759400000000     0.989200000000     0          
H701     H      0.936920000000     0.776080000000     0.003430000000     0          
H702     H      0.903330000000     0.733410000000     0.046450000000     0          
H703     H      0.920560000000     0.797170000000     0.067370000000     0          
H704     H      0.589620000000     0.232100000000     0.973120000000     0          
H705     H      0.589240000000     0.280940000000     0.923970000000     0          
H706     H      0.560340000000     0.293630000000     0.985650000000     0          
H707     H      0.929780000000     0.243160000000     0.002150000000     0          
H708     H      0.930160000000     0.194320000000     0.051290000000     0          
H709     H      0.900870000000     0.255850000000     0.063820000000     0          
H710     H      0.589240000000     0.423970000000     0.780940000000     0          
H711     H      0.589620000000     0.473120000000     0.732100000000     0          
H712     H      0.560340000000     0.485650000000     0.793630000000     0          
H713     H      0.089240000000     0.423970000000     0.280940000000     0          
H714     H      0.089620000000     0.473120000000     0.232100000000     0          
H715     H      0.060340000000     0.485650000000     0.293630000000     0          
H716     H      0.430160000000     0.551290000000     0.194320000000     0          
H717     H      0.429780000000     0.502150000000     0.243160000000     0          
H718     H      0.400870000000     0.563820000000     0.255850000000     0          
H719     H      0.930160000000     0.551290000000     0.694320000000     0          
H720     H      0.929780000000     0.502150000000     0.743160000000     0          
H721     H      0.900870000000     0.563820000000     0.755850000000     0          
H722     H      0.570220000000     0.502150000000     0.243160000000     0          
H723     H      0.569840000000     0.551290000000     0.194320000000     0          
H724     H      0.599130000000     0.563820000000     0.255850000000     0          
H725     H      0.910380000000     0.473120000000     0.232100000000     0          
H726     H      0.910760000000     0.423970000000     0.280940000000     0          
H727     H      0.939660000000     0.485650000000     0.293630000000     0          
H728     H      0.672990000000     0.781270000000     0.974890000000     0          
H729     H      0.172990000000     0.281270000000     0.974890000000     0          
H730     H      0.172990000000     0.781270000000     0.474890000000     0          
H731     H      0.327010000000     0.781270000000     0.025110000000     0          
H732     H      0.827010000000     0.281270000000     0.025110000000     0          
H733     H      0.172990000000     0.218730000000     0.525110000000     0          
H734     H      0.105490000000     0.284660000000     0.525160000000     0          
H735     H      0.281270000000     0.474890000000     0.672990000000     0          
H736     H      0.781270000000     0.474890000000     0.172990000000     0          
H737     H      0.715340000000     0.474840000000     0.105490000000     0          
H738     H      0.718730000000     0.974890000000     0.827010000000     0          
H739     H      0.739340000000     0.940970000000     0.908900000000     0          
H740     H      0.793530000000     0.976070000000     0.944000000000     0          
H741     H      0.218730000000     0.974890000000     0.327010000000     0          
H742     H      0.239340000000     0.940970000000     0.408900000000     0          
H743     H      0.293530000000     0.976070000000     0.444000000000     0          
H744     H      0.281270000000     0.525110000000     0.327010000000     0          
H745     H      0.215340000000     0.525160000000     0.394510000000     0          
H746     H      0.781270000000     0.525110000000     0.827010000000     0          
H747     H      0.715340000000     0.525160000000     0.894510000000     0          
H748     H      0.718730000000     0.025110000000     0.172990000000     0          
H749     H      0.793530000000     0.023930000000     0.056000000000     0          
H750     H      0.739340000000     0.059030000000     0.091100000000     0          
H751     H      0.218730000000     0.025110000000     0.672990000000     0          
H752     H      0.293530000000     0.023930000000     0.556000000000     0          
H753     H      0.239340000000     0.059030000000     0.591100000000     0          
H754     H      0.281270000000     0.672990000000     0.525110000000     0          
H755     H      0.215340000000     0.605490000000     0.525160000000     0          
H756     H      0.281270000000     0.172990000000     0.025110000000     0          
H757     H      0.215340000000     0.105490000000     0.025160000000     0          
H758     H      0.781270000000     0.672990000000     0.025110000000     0          
H759     H      0.715340000000     0.605490000000     0.025160000000     0          
H760     H      0.281270000000     0.327010000000     0.474890000000     0          
H761     H      0.718730000000     0.172990000000     0.974890000000     0          
H762     H      0.784660000000     0.105490000000     0.974840000000     0          
H763     H      0.218730000000     0.672990000000     0.974890000000     0          
H764     H      0.284660000000     0.605490000000     0.974840000000     0          
H765     H      0.672990000000     0.474890000000     0.718730000000     0          
H766     H      0.172990000000     0.474890000000     0.218730000000     0          
H767     H      0.327010000000     0.974890000000     0.781270000000     0          
H768     H      0.426720000000     0.932540000000     0.707590000000     0          
H769     H      0.426190000000     0.984500000000     0.759550000000     0          
H770     H      0.827010000000     0.974890000000     0.281270000000     0          
H771     H      0.926720000000     0.932540000000     0.207590000000     0          
H772     H      0.926190000000     0.984500000000     0.259550000000     0          
H773     H      0.327010000000     0.025110000000     0.218730000000     0          
H774     H      0.426190000000     0.015500000000     0.240450000000     0          
H775     H      0.426720000000     0.067460000000     0.292410000000     0          
H776     H      0.827010000000     0.025110000000     0.718730000000     0          
H777     H      0.926190000000     0.015500000000     0.740450000000     0          
H778     H      0.926720000000     0.067460000000     0.792410000000     0          
H779     H      0.672990000000     0.525110000000     0.281270000000     0          
H780     H      0.172990000000     0.525110000000     0.781270000000     0          
H781     H      0.105490000000     0.525160000000     0.715340000000     0          
H782     H      0.327010000000     0.718730000000     0.525110000000     0          
H783     H      0.327010000000     0.218730000000     0.025110000000     0          
H784     H      0.827010000000     0.718730000000     0.025110000000     0          
H785     H      0.672990000000     0.218730000000     0.974890000000     0          
H786     H      0.172990000000     0.718730000000     0.974890000000     0          
H787     H      0.327010000000     0.281270000000     0.474890000000     0          
H788     H      0.394510000000     0.215340000000     0.474840000000     0          
H789     H      0.718730000000     0.525110000000     0.327010000000     0          
H790     H      0.784660000000     0.525160000000     0.394510000000     0          
H791     H      0.218730000000     0.525110000000     0.827010000000     0          
H792     H      0.281270000000     0.025110000000     0.172990000000     0          
H793     H      0.206470000000     0.023930000000     0.056000000000     0          
H794     H      0.260660000000     0.059030000000     0.091100000000     0          
H795     H      0.781270000000     0.025110000000     0.672990000000     0          
H796     H      0.706470000000     0.023930000000     0.556000000000     0          
H797     H      0.760660000000     0.059030000000     0.591100000000     0          
H798     H      0.718730000000     0.474890000000     0.672990000000     0          
H799     H      0.784660000000     0.474840000000     0.605490000000     0          
H800     H      0.218730000000     0.474890000000     0.172990000000     0          
H801     H      0.284660000000     0.474840000000     0.105490000000     0          
H802     H      0.281270000000     0.974890000000     0.827010000000     0          
H803     H      0.260660000000     0.940970000000     0.908900000000     0          
H804     H      0.206470000000     0.976070000000     0.944000000000     0          
H805     H      0.781270000000     0.974890000000     0.327010000000     0          
H806     H      0.760660000000     0.940970000000     0.408900000000     0          
H807     H      0.706470000000     0.976070000000     0.444000000000     0          
H808     H      0.718730000000     0.827010000000     0.974890000000     0          
H809     H      0.784660000000     0.894510000000     0.974840000000     0          
H810     H      0.218730000000     0.327010000000     0.974890000000     0          
H811     H      0.284660000000     0.394510000000     0.974840000000     0          
H812     H      0.284910000000     0.894590000000     0.474880000000     0          
H813     H      0.218730000000     0.172990000000     0.525110000000     0          
H814     H      0.281270000000     0.827010000000     0.025110000000     0          
H815     H      0.215340000000     0.894510000000     0.025160000000     0          
H816     H      0.781270000000     0.327010000000     0.025110000000     0          
H817     H      0.715340000000     0.394510000000     0.025160000000     0          
H818     H      0.327010000000     0.525110000000     0.281270000000     0          
H819     H      0.827010000000     0.525110000000     0.781270000000     0          
H820     H      0.672990000000     0.025110000000     0.218730000000     0          
H821     H      0.573810000000     0.015500000000     0.240450000000     0          
H822     H      0.573280000000     0.067460000000     0.292410000000     0          
H823     H      0.172990000000     0.025110000000     0.718730000000     0          
H824     H      0.073810000000     0.015500000000     0.740450000000     0          
H825     H      0.073280000000     0.067460000000     0.792410000000     0          
H826     H      0.672990000000     0.974890000000     0.781270000000     0          
H827     H      0.573280000000     0.932540000000     0.707590000000     0          
H828     H      0.573810000000     0.984500000000     0.759550000000     0          
H829     H      0.172990000000     0.974890000000     0.281270000000     0          
H830     H      0.073280000000     0.932540000000     0.207590000000     0          
H831     H      0.073810000000     0.984500000000     0.259550000000     0          
H832     H      0.327010000000     0.474890000000     0.718730000000     0          
H833     H      0.394510000000     0.474840000000     0.784660000000     0          
H834     H      0.827010000000     0.474890000000     0.218730000000     0          
H835     H      0.844970000000     0.180320000000     0.870270000000     0          
H836     H      0.915450000000     0.112830000000     0.858880000000     0          
H837     H      0.858880000000     0.084550000000     0.887170000000     0          
H838     H      0.887170000000     0.141120000000     0.915450000000     0          


