data_QEFWUV

_audit_creation_method RASPA-1.0
_audit_creation_date 2020-11-2
_audit_author_name 'Rocio Bueno-Perez'

_cell_length_a    42.68
_cell_length_b    42.68
_cell_length_c    16.66
_cell_angle_alpha 90
_cell_angle_beta  90
_cell_angle_gamma 120
_cell_volume      26281.8

_symmetry_cell_setting          triclinic
_symmetry_space_group_name_Hall 'P 1'
_symmetry_space_group_name_H-M  'P 1'
_symmetry_Int_Tables_number     1

_symmetry_equiv_pos_as_xyz 'x,y,z'

loop_
_atom_site_label
_atom_site_type_symbol
_atom_site_fract_x
_atom_site_fract_y
_atom_site_fract_z
_atom_site_charge
C1       C      0.148800000000     0.653100000000     0.960900000000     0          
H2       H      0.131300000000     0.635300000000     0.927800000000     0          
C3       C      0.226400000000     0.742000000000     0.746600000000     0          
H4       H      0.212200000000     0.730400000000     0.702100000000     0          
C5       C      0.218990000000     0.729690000000     0.828700000000     0          
C6       C      0.086250000000     0.593250000000     0.632900000000     0          
O7       O      0.053920000000     0.585100000000     0.647200000000     0          
O8       O      0.097190000000     0.579460000000     0.580600000000     0          
C9       C      0.149440000000     0.628840000000     0.688100000000     0          
H10      H      0.155900000000     0.615700000000     0.654300000000     0          
C11      C      0.114700000000     0.622800000000     0.685200000000     0          
C12      C      0.164900000000     0.671500000000     0.790900000000     0          
C13      C      0.174770000000     0.653470000000     0.738900000000     0          
H14      H      0.198400000000     0.657900000000     0.738000000000     0          
C15      C      0.104400000000     0.641700000000     0.732400000000     0          
H16      H      0.081100000000     0.638100000000     0.729200000000     0          
C17      C      0.181200000000     0.685900000000     0.934700000000     0          
C18      C      0.189900000000     0.696100000000     0.855500000000     0          
C19      C      0.130300000000     0.667700000000     0.787500000000     0          
H20      H      0.124200000000     0.681500000000     0.820100000000     0          
C21      C      0.346900000000     0.495700000000     0.960900000000     0          
H22      H      0.364700000000     0.496000000000     0.927800000000     0          
C23      C      0.258000000000     0.484400000000     0.746600000000     0          
H24      H      0.269600000000     0.481800000000     0.702100000000     0          
C25      C      0.270310000000     0.489300000000     0.828700000000     0          
C26      C      0.406750000000     0.493000000000     0.632900000000     0          
O27      O      0.414900000000     0.468820000000     0.647200000000     0          
O28      O      0.420540000000     0.517730000000     0.580600000000     0          
C29      C      0.371160000000     0.520600000000     0.688100000000     0          
H30      H      0.384300000000     0.540200000000     0.654300000000     0          
C31      C      0.377200000000     0.491900000000     0.685200000000     0          
C32      C      0.328500000000     0.493400000000     0.790900000000     0          
C33      C      0.346530000000     0.521300000000     0.738900000000     0          
H34      H      0.342100000000     0.540500000000     0.738000000000     0          
C35      C      0.358300000000     0.462700000000     0.732400000000     0          
H36      H      0.361900000000     0.443000000000     0.729200000000     0          
C37      C      0.314100000000     0.495300000000     0.934700000000     0          
C38      C      0.303900000000     0.493800000000     0.855500000000     0          
C39      C      0.332300000000     0.462600000000     0.787500000000     0          
H40      H      0.318500000000     0.442700000000     0.820100000000     0          
C41      C      0.504300000000     0.851200000000     0.960900000000     0          
H42      H      0.504000000000     0.868700000000     0.927800000000     0          
C43      C      0.515600000000     0.773600000000     0.746600000000     0          
H44      H      0.518200000000     0.787800000000     0.702100000000     0          
C45      C      0.510700000000     0.781010000000     0.828700000000     0          
C46      C      0.507000000000     0.913750000000     0.632900000000     0          
O47      O      0.531180000000     0.946080000000     0.647200000000     0          
O48      O      0.482270000000     0.902810000000     0.580600000000     0          
C49      C      0.479400000000     0.850560000000     0.688100000000     0          
H50      H      0.459800000000     0.844100000000     0.654300000000     0          
C51      C      0.508100000000     0.885300000000     0.685200000000     0          
C52      C      0.506600000000     0.835100000000     0.790900000000     0          
C53      C      0.478700000000     0.825230000000     0.738900000000     0          
H54      H      0.459500000000     0.801600000000     0.738000000000     0          
C55      C      0.537300000000     0.895600000000     0.732400000000     0          
H56      H      0.557000000000     0.918900000000     0.729200000000     0          
C57      C      0.504700000000     0.818800000000     0.934700000000     0          
C58      C      0.506200000000     0.810100000000     0.855500000000     0          
C59      C      0.537400000000     0.869700000000     0.787500000000     0          
H60      H      0.557300000000     0.875800000000     0.820100000000     0          
C61      C      0.851200000000     0.346900000000     0.960900000000     0          
H62      H      0.868700000000     0.364700000000     0.927800000000     0          
C63      C      0.773600000000     0.258000000000     0.746600000000     0          
H64      H      0.787800000000     0.269600000000     0.702100000000     0          
C65      C      0.781010000000     0.270310000000     0.828700000000     0          
C66      C      0.913750000000     0.406750000000     0.632900000000     0          
O67      O      0.946080000000     0.414900000000     0.647200000000     0          
O68      O      0.902810000000     0.420540000000     0.580600000000     0          
C69      C      0.850560000000     0.371160000000     0.688100000000     0          
H70      H      0.844100000000     0.384300000000     0.654300000000     0          
C71      C      0.885300000000     0.377200000000     0.685200000000     0          
C72      C      0.835100000000     0.328500000000     0.790900000000     0          
C73      C      0.825230000000     0.346530000000     0.738900000000     0          
H74      H      0.801600000000     0.342100000000     0.738000000000     0          
C75      C      0.895600000000     0.358300000000     0.732400000000     0          
H76      H      0.918900000000     0.361900000000     0.729200000000     0          
C77      C      0.818800000000     0.314100000000     0.934700000000     0          
C78      C      0.810100000000     0.303900000000     0.855500000000     0          
C79      C      0.869700000000     0.332300000000     0.787500000000     0          
H80      H      0.875800000000     0.318500000000     0.820100000000     0          
C81      C      0.653100000000     0.504300000000     0.960900000000     0          
H82      H      0.635300000000     0.504000000000     0.927800000000     0          
C83      C      0.742000000000     0.515600000000     0.746600000000     0          
H84      H      0.730400000000     0.518200000000     0.702100000000     0          
C85      C      0.729690000000     0.510700000000     0.828700000000     0          
C86      C      0.593250000000     0.507000000000     0.632900000000     0          
O87      O      0.585100000000     0.531180000000     0.647200000000     0          
O88      O      0.579460000000     0.482270000000     0.580600000000     0          
C89      C      0.628840000000     0.479400000000     0.688100000000     0          
H90      H      0.615700000000     0.459800000000     0.654300000000     0          
C91      C      0.622800000000     0.508100000000     0.685200000000     0          
C92      C      0.671500000000     0.506600000000     0.790900000000     0          
C93      C      0.653470000000     0.478700000000     0.738900000000     0          
H94      H      0.657900000000     0.459500000000     0.738000000000     0          
C95      C      0.641700000000     0.537300000000     0.732400000000     0          
H96      H      0.638100000000     0.557000000000     0.729200000000     0          
C97      C      0.685900000000     0.504700000000     0.934700000000     0          
C98      C      0.696100000000     0.506200000000     0.855500000000     0          
C99      C      0.667700000000     0.537400000000     0.787500000000     0          
H100     H      0.681500000000     0.557300000000     0.820100000000     0          
C101     C      0.495700000000     0.148800000000     0.960900000000     0          
H102     H      0.496000000000     0.131300000000     0.927800000000     0          
C103     C      0.484400000000     0.226400000000     0.746600000000     0          
H104     H      0.481800000000     0.212200000000     0.702100000000     0          
C105     C      0.489300000000     0.218990000000     0.828700000000     0          
C106     C      0.493000000000     0.086250000000     0.632900000000     0          
O107     O      0.468820000000     0.053920000000     0.647200000000     0          
O108     O      0.517730000000     0.097190000000     0.580600000000     0          
C109     C      0.520600000000     0.149440000000     0.688100000000     0          
H110     H      0.540200000000     0.155900000000     0.654300000000     0          
C111     C      0.491900000000     0.114700000000     0.685200000000     0          
C112     C      0.493400000000     0.164900000000     0.790900000000     0          
C113     C      0.521300000000     0.174770000000     0.738900000000     0          
H114     H      0.540500000000     0.198400000000     0.738000000000     0          
C115     C      0.462700000000     0.104400000000     0.732400000000     0          
H116     H      0.443000000000     0.081100000000     0.729200000000     0          
C117     C      0.495300000000     0.181200000000     0.934700000000     0          
C118     C      0.493800000000     0.189900000000     0.855500000000     0          
C119     C      0.462600000000     0.130300000000     0.787500000000     0          
H120     H      0.442700000000     0.124200000000     0.820100000000     0          
C121     C      0.653100000000     0.148800000000     0.039100000000     0          
H122     H      0.635300000000     0.131300000000     0.072200000000     0          
C123     C      0.742000000000     0.226400000000     0.253400000000     0          
H124     H      0.730400000000     0.212200000000     0.297900000000     0          
C125     C      0.729690000000     0.218990000000     0.171300000000     0          
C126     C      0.593250000000     0.086250000000     0.367100000000     0          
O127     O      0.585100000000     0.053920000000     0.352800000000     0          
O128     O      0.579460000000     0.097190000000     0.419400000000     0          
C129     C      0.628840000000     0.149440000000     0.311900000000     0          
H130     H      0.615700000000     0.155900000000     0.345700000000     0          
C131     C      0.622800000000     0.114700000000     0.314800000000     0          
C132     C      0.671500000000     0.164900000000     0.209100000000     0          
C133     C      0.653470000000     0.174770000000     0.261100000000     0          
H134     H      0.657900000000     0.198400000000     0.262000000000     0          
C135     C      0.641700000000     0.104400000000     0.267600000000     0          
H136     H      0.638100000000     0.081100000000     0.270800000000     0          
C137     C      0.685900000000     0.181200000000     0.065300000000     0          
C138     C      0.696100000000     0.189900000000     0.144500000000     0          
C139     C      0.667700000000     0.130300000000     0.212500000000     0          
H140     H      0.681500000000     0.124200000000     0.179900000000     0          
C141     C      0.495700000000     0.346900000000     0.039100000000     0          
H142     H      0.496000000000     0.364700000000     0.072200000000     0          
C143     C      0.484400000000     0.258000000000     0.253400000000     0          
H144     H      0.481800000000     0.269600000000     0.297900000000     0          
C145     C      0.489300000000     0.270310000000     0.171300000000     0          
C146     C      0.493000000000     0.406750000000     0.367100000000     0          
O147     O      0.468820000000     0.414900000000     0.352800000000     0          
O148     O      0.517730000000     0.420540000000     0.419400000000     0          
C149     C      0.520600000000     0.371160000000     0.311900000000     0          
H150     H      0.540200000000     0.384300000000     0.345700000000     0          
C151     C      0.491900000000     0.377200000000     0.314800000000     0          
C152     C      0.493400000000     0.328500000000     0.209100000000     0          
C153     C      0.521300000000     0.346530000000     0.261100000000     0          
H154     H      0.540500000000     0.342100000000     0.262000000000     0          
C155     C      0.462700000000     0.358300000000     0.267600000000     0          
H156     H      0.443000000000     0.361900000000     0.270800000000     0          
C157     C      0.495300000000     0.314100000000     0.065300000000     0          
C158     C      0.493800000000     0.303900000000     0.144500000000     0          
C159     C      0.462600000000     0.332300000000     0.212500000000     0          
H160     H      0.442700000000     0.318500000000     0.179900000000     0          
C161     C      0.851200000000     0.504300000000     0.039100000000     0          
H162     H      0.868700000000     0.504000000000     0.072200000000     0          
C163     C      0.773600000000     0.515600000000     0.253400000000     0          
H164     H      0.787800000000     0.518200000000     0.297900000000     0          
C165     C      0.781010000000     0.510700000000     0.171300000000     0          
C166     C      0.913750000000     0.507000000000     0.367100000000     0          
O167     O      0.946080000000     0.531180000000     0.352800000000     0          
O168     O      0.902810000000     0.482270000000     0.419400000000     0          
C169     C      0.850560000000     0.479400000000     0.311900000000     0          
H170     H      0.844100000000     0.459800000000     0.345700000000     0          
C171     C      0.885300000000     0.508100000000     0.314800000000     0          
C172     C      0.835100000000     0.506600000000     0.209100000000     0          
C173     C      0.825230000000     0.478700000000     0.261100000000     0          
H174     H      0.801600000000     0.459500000000     0.262000000000     0          
C175     C      0.895600000000     0.537300000000     0.267600000000     0          
H176     H      0.918900000000     0.557000000000     0.270800000000     0          
C177     C      0.818800000000     0.504700000000     0.065300000000     0          
C178     C      0.810100000000     0.506200000000     0.144500000000     0          
C179     C      0.869700000000     0.537400000000     0.212500000000     0          
H180     H      0.875800000000     0.557300000000     0.179900000000     0          
C181     C      0.346900000000     0.851200000000     0.039100000000     0          
H182     H      0.364700000000     0.868700000000     0.072200000000     0          
C183     C      0.258000000000     0.773600000000     0.253400000000     0          
H184     H      0.269600000000     0.787800000000     0.297900000000     0          
C185     C      0.270310000000     0.781010000000     0.171300000000     0          
C186     C      0.406750000000     0.913750000000     0.367100000000     0          
O187     O      0.414900000000     0.946080000000     0.352800000000     0          
O188     O      0.420540000000     0.902810000000     0.419400000000     0          
C189     C      0.371160000000     0.850560000000     0.311900000000     0          
H190     H      0.384300000000     0.844100000000     0.345700000000     0          
C191     C      0.377200000000     0.885300000000     0.314800000000     0          
C192     C      0.328500000000     0.835100000000     0.209100000000     0          
C193     C      0.346530000000     0.825230000000     0.261100000000     0          
H194     H      0.342100000000     0.801600000000     0.262000000000     0          
C195     C      0.358300000000     0.895600000000     0.267600000000     0          
H196     H      0.361900000000     0.918900000000     0.270800000000     0          
C197     C      0.314100000000     0.818800000000     0.065300000000     0          
C198     C      0.303900000000     0.810100000000     0.144500000000     0          
C199     C      0.332300000000     0.869700000000     0.212500000000     0          
H200     H      0.318500000000     0.875800000000     0.179900000000     0          
C201     C      0.504300000000     0.653100000000     0.039100000000     0          
H202     H      0.504000000000     0.635300000000     0.072200000000     0          
C203     C      0.515600000000     0.742000000000     0.253400000000     0          
H204     H      0.518200000000     0.730400000000     0.297900000000     0          
C205     C      0.510700000000     0.729690000000     0.171300000000     0          
C206     C      0.507000000000     0.593250000000     0.367100000000     0          
O207     O      0.531180000000     0.585100000000     0.352800000000     0          
O208     O      0.482270000000     0.579460000000     0.419400000000     0          
C209     C      0.479400000000     0.628840000000     0.311900000000     0          
H210     H      0.459800000000     0.615700000000     0.345700000000     0          
C211     C      0.508100000000     0.622800000000     0.314800000000     0          
C212     C      0.506600000000     0.671500000000     0.209100000000     0          
C213     C      0.478700000000     0.653470000000     0.261100000000     0          
H214     H      0.459500000000     0.657900000000     0.262000000000     0          
C215     C      0.537300000000     0.641700000000     0.267600000000     0          
H216     H      0.557000000000     0.638100000000     0.270800000000     0          
C217     C      0.504700000000     0.685900000000     0.065300000000     0          
C218     C      0.506200000000     0.696100000000     0.144500000000     0          
C219     C      0.537400000000     0.667700000000     0.212500000000     0          
H220     H      0.557300000000     0.681500000000     0.179900000000     0          
C221     C      0.148800000000     0.495700000000     0.039100000000     0          
H222     H      0.131300000000     0.496000000000     0.072200000000     0          
C223     C      0.226400000000     0.484400000000     0.253400000000     0          
H224     H      0.212200000000     0.481800000000     0.297900000000     0          
C225     C      0.218990000000     0.489300000000     0.171300000000     0          
C226     C      0.086250000000     0.493000000000     0.367100000000     0          
O227     O      0.053920000000     0.468820000000     0.352800000000     0          
O228     O      0.097190000000     0.517730000000     0.419400000000     0          
C229     C      0.149440000000     0.520600000000     0.311900000000     0          
H230     H      0.155900000000     0.540200000000     0.345700000000     0          
C231     C      0.114700000000     0.491900000000     0.314800000000     0          
C232     C      0.164900000000     0.493400000000     0.209100000000     0          
C233     C      0.174770000000     0.521300000000     0.261100000000     0          
H234     H      0.198400000000     0.540500000000     0.262000000000     0          
C235     C      0.104400000000     0.462700000000     0.267600000000     0          
H236     H      0.081100000000     0.443000000000     0.270800000000     0          
C237     C      0.181200000000     0.495300000000     0.065300000000     0          
C238     C      0.189900000000     0.493800000000     0.144500000000     0          
C239     C      0.130300000000     0.462600000000     0.212500000000     0          
H240     H      0.124200000000     0.442700000000     0.179900000000     0          
C241     C      0.851200000000     0.346900000000     0.039100000000     0          
H242     H      0.868700000000     0.364700000000     0.072200000000     0          
C243     C      0.773600000000     0.258000000000     0.253400000000     0          
H244     H      0.787800000000     0.269600000000     0.297900000000     0          
C245     C      0.781010000000     0.270310000000     0.171300000000     0          
C246     C      0.913750000000     0.406750000000     0.367100000000     0          
O247     O      0.946080000000     0.414900000000     0.352800000000     0          
O248     O      0.902810000000     0.420540000000     0.419400000000     0          
C249     C      0.850560000000     0.371160000000     0.311900000000     0          
H250     H      0.844100000000     0.384300000000     0.345700000000     0          
C251     C      0.885300000000     0.377200000000     0.314800000000     0          
C252     C      0.835100000000     0.328500000000     0.209100000000     0          
C253     C      0.825230000000     0.346530000000     0.261100000000     0          
H254     H      0.801600000000     0.342100000000     0.262000000000     0          
C255     C      0.895600000000     0.358300000000     0.267600000000     0          
H256     H      0.918900000000     0.361900000000     0.270800000000     0          
C257     C      0.818800000000     0.314100000000     0.065300000000     0          
C258     C      0.810100000000     0.303900000000     0.144500000000     0          
C259     C      0.869700000000     0.332300000000     0.212500000000     0          
H260     H      0.875800000000     0.318500000000     0.179900000000     0          
C261     C      0.653100000000     0.504300000000     0.039100000000     0          
H262     H      0.635300000000     0.504000000000     0.072200000000     0          
C263     C      0.742000000000     0.515600000000     0.253400000000     0          
H264     H      0.730400000000     0.518200000000     0.297900000000     0          
C265     C      0.729690000000     0.510700000000     0.171300000000     0          
C266     C      0.593250000000     0.507000000000     0.367100000000     0          
O267     O      0.585100000000     0.531180000000     0.352800000000     0          
O268     O      0.579460000000     0.482270000000     0.419400000000     0          
C269     C      0.628840000000     0.479400000000     0.311900000000     0          
H270     H      0.615700000000     0.459800000000     0.345700000000     0          
C271     C      0.622800000000     0.508100000000     0.314800000000     0          
C272     C      0.671500000000     0.506600000000     0.209100000000     0          
C273     C      0.653470000000     0.478700000000     0.261100000000     0          
H274     H      0.657900000000     0.459500000000     0.262000000000     0          
C275     C      0.641700000000     0.537300000000     0.267600000000     0          
H276     H      0.638100000000     0.557000000000     0.270800000000     0          
C277     C      0.685900000000     0.504700000000     0.065300000000     0          
C278     C      0.696100000000     0.506200000000     0.144500000000     0          
C279     C      0.667700000000     0.537400000000     0.212500000000     0          
H280     H      0.681500000000     0.557300000000     0.179900000000     0          
C281     C      0.495700000000     0.148800000000     0.039100000000     0          
H282     H      0.496000000000     0.131300000000     0.072200000000     0          
C283     C      0.484400000000     0.226400000000     0.253400000000     0          
H284     H      0.481800000000     0.212200000000     0.297900000000     0          
C285     C      0.489300000000     0.218990000000     0.171300000000     0          
C286     C      0.493000000000     0.086250000000     0.367100000000     0          
O287     O      0.468820000000     0.053920000000     0.352800000000     0          
O288     O      0.517730000000     0.097190000000     0.419400000000     0          
C289     C      0.520600000000     0.149440000000     0.311900000000     0          
H290     H      0.540200000000     0.155900000000     0.345700000000     0          
C291     C      0.491900000000     0.114700000000     0.314800000000     0          
C292     C      0.493400000000     0.164900000000     0.209100000000     0          
C293     C      0.521300000000     0.174770000000     0.261100000000     0          
H294     H      0.540500000000     0.198400000000     0.262000000000     0          
C295     C      0.462700000000     0.104400000000     0.267600000000     0          
H296     H      0.443000000000     0.081100000000     0.270800000000     0          
C297     C      0.495300000000     0.181200000000     0.065300000000     0          
C298     C      0.493800000000     0.189900000000     0.144500000000     0          
C299     C      0.462600000000     0.130300000000     0.212500000000     0          
H300     H      0.442700000000     0.124200000000     0.179900000000     0          
C301     C      0.148800000000     0.653100000000     0.039100000000     0          
H302     H      0.131300000000     0.635300000000     0.072200000000     0          
C303     C      0.226400000000     0.742000000000     0.253400000000     0          
H304     H      0.212200000000     0.730400000000     0.297900000000     0          
C305     C      0.218990000000     0.729690000000     0.171300000000     0          
C306     C      0.086250000000     0.593250000000     0.367100000000     0          
O307     O      0.053920000000     0.585100000000     0.352800000000     0          
O308     O      0.097190000000     0.579460000000     0.419400000000     0          
C309     C      0.149440000000     0.628840000000     0.311900000000     0          
H310     H      0.155900000000     0.615700000000     0.345700000000     0          
C311     C      0.114700000000     0.622800000000     0.314800000000     0          
C312     C      0.164900000000     0.671500000000     0.209100000000     0          
C313     C      0.174770000000     0.653470000000     0.261100000000     0          
H314     H      0.198400000000     0.657900000000     0.262000000000     0          
C315     C      0.104400000000     0.641700000000     0.267600000000     0          
H316     H      0.081100000000     0.638100000000     0.270800000000     0          
C317     C      0.181200000000     0.685900000000     0.065300000000     0          
C318     C      0.189900000000     0.696100000000     0.144500000000     0          
C319     C      0.130300000000     0.667700000000     0.212500000000     0          
H320     H      0.124200000000     0.681500000000     0.179900000000     0          
C321     C      0.346900000000     0.495700000000     0.039100000000     0          
H322     H      0.364700000000     0.496000000000     0.072200000000     0          
C323     C      0.258000000000     0.484400000000     0.253400000000     0          
H324     H      0.269600000000     0.481800000000     0.297900000000     0          
C325     C      0.270310000000     0.489300000000     0.171300000000     0          
C326     C      0.406750000000     0.493000000000     0.367100000000     0          
O327     O      0.414900000000     0.468820000000     0.352800000000     0          
O328     O      0.420540000000     0.517730000000     0.419400000000     0          
C329     C      0.371160000000     0.520600000000     0.311900000000     0          
H330     H      0.384300000000     0.540200000000     0.345700000000     0          
C331     C      0.377200000000     0.491900000000     0.314800000000     0          
C332     C      0.328500000000     0.493400000000     0.209100000000     0          
C333     C      0.346530000000     0.521300000000     0.261100000000     0          
H334     H      0.342100000000     0.540500000000     0.262000000000     0          
C335     C      0.358300000000     0.462700000000     0.267600000000     0          
H336     H      0.361900000000     0.443000000000     0.270800000000     0          
C337     C      0.314100000000     0.495300000000     0.065300000000     0          
C338     C      0.303900000000     0.493800000000     0.144500000000     0          
C339     C      0.332300000000     0.462600000000     0.212500000000     0          
H340     H      0.318500000000     0.442700000000     0.179900000000     0          
C341     C      0.504300000000     0.851200000000     0.039100000000     0          
H342     H      0.504000000000     0.868700000000     0.072200000000     0          
C343     C      0.515600000000     0.773600000000     0.253400000000     0          
H344     H      0.518200000000     0.787800000000     0.297900000000     0          
C345     C      0.510700000000     0.781010000000     0.171300000000     0          
C346     C      0.507000000000     0.913750000000     0.367100000000     0          
O347     O      0.531180000000     0.946080000000     0.352800000000     0          
O348     O      0.482270000000     0.902810000000     0.419400000000     0          
C349     C      0.479400000000     0.850560000000     0.311900000000     0          
H350     H      0.459800000000     0.844100000000     0.345700000000     0          
C351     C      0.508100000000     0.885300000000     0.314800000000     0          
C352     C      0.506600000000     0.835100000000     0.209100000000     0          
C353     C      0.478700000000     0.825230000000     0.261100000000     0          
H354     H      0.459500000000     0.801600000000     0.262000000000     0          
C355     C      0.537300000000     0.895600000000     0.267600000000     0          
H356     H      0.557000000000     0.918900000000     0.270800000000     0          
C357     C      0.504700000000     0.818800000000     0.065300000000     0          
C358     C      0.506200000000     0.810100000000     0.144500000000     0          
C359     C      0.537400000000     0.869700000000     0.212500000000     0          
H360     H      0.557300000000     0.875800000000     0.179900000000     0          
C361     C      0.346900000000     0.851200000000     0.960900000000     0          
H362     H      0.364700000000     0.868700000000     0.927800000000     0          
C363     C      0.258000000000     0.773600000000     0.746600000000     0          
H364     H      0.269600000000     0.787800000000     0.702100000000     0          
C365     C      0.270310000000     0.781010000000     0.828700000000     0          
C366     C      0.406750000000     0.913750000000     0.632900000000     0          
O367     O      0.414900000000     0.946080000000     0.647200000000     0          
O368     O      0.420540000000     0.902810000000     0.580600000000     0          
C369     C      0.371160000000     0.850560000000     0.688100000000     0          
H370     H      0.384300000000     0.844100000000     0.654300000000     0          
C371     C      0.377200000000     0.885300000000     0.685200000000     0          
C372     C      0.328500000000     0.835100000000     0.790900000000     0          
C373     C      0.346530000000     0.825230000000     0.738900000000     0          
H374     H      0.342100000000     0.801600000000     0.738000000000     0          
C375     C      0.358300000000     0.895600000000     0.732400000000     0          
H376     H      0.361900000000     0.918900000000     0.729200000000     0          
C377     C      0.314100000000     0.818800000000     0.934700000000     0          
C378     C      0.303900000000     0.810100000000     0.855500000000     0          
C379     C      0.332300000000     0.869700000000     0.787500000000     0          
H380     H      0.318500000000     0.875800000000     0.820100000000     0          
C381     C      0.504300000000     0.653100000000     0.960900000000     0          
H382     H      0.504000000000     0.635300000000     0.927800000000     0          
C383     C      0.515600000000     0.742000000000     0.746600000000     0          
H384     H      0.518200000000     0.730400000000     0.702100000000     0          
C385     C      0.510700000000     0.729690000000     0.828700000000     0          
C386     C      0.507000000000     0.593250000000     0.632900000000     0          
O387     O      0.531180000000     0.585100000000     0.647200000000     0          
O388     O      0.482270000000     0.579460000000     0.580600000000     0          
C389     C      0.479400000000     0.628840000000     0.688100000000     0          
H390     H      0.459800000000     0.615700000000     0.654300000000     0          
C391     C      0.508100000000     0.622800000000     0.685200000000     0          
C392     C      0.506600000000     0.671500000000     0.790900000000     0          
C393     C      0.478700000000     0.653470000000     0.738900000000     0          
H394     H      0.459500000000     0.657900000000     0.738000000000     0          
C395     C      0.537300000000     0.641700000000     0.732400000000     0          
H396     H      0.557000000000     0.638100000000     0.729200000000     0          
C397     C      0.504700000000     0.685900000000     0.934700000000     0          
C398     C      0.506200000000     0.696100000000     0.855500000000     0          
C399     C      0.537400000000     0.667700000000     0.787500000000     0          
H400     H      0.557300000000     0.681500000000     0.820100000000     0          
C401     C      0.148800000000     0.495700000000     0.960900000000     0          
H402     H      0.131300000000     0.496000000000     0.927800000000     0          
C403     C      0.226400000000     0.484400000000     0.746600000000     0          
H404     H      0.212200000000     0.481800000000     0.702100000000     0          
C405     C      0.218990000000     0.489300000000     0.828700000000     0          
C406     C      0.086250000000     0.493000000000     0.632900000000     0          
O407     O      0.053920000000     0.468820000000     0.647200000000     0          
O408     O      0.097190000000     0.517730000000     0.580600000000     0          
C409     C      0.149440000000     0.520600000000     0.688100000000     0          
H410     H      0.155900000000     0.540200000000     0.654300000000     0          
C411     C      0.114700000000     0.491900000000     0.685200000000     0          
C412     C      0.164900000000     0.493400000000     0.790900000000     0          
C413     C      0.174770000000     0.521300000000     0.738900000000     0          
H414     H      0.198400000000     0.540500000000     0.738000000000     0          
C415     C      0.104400000000     0.462700000000     0.732400000000     0          
H416     H      0.081100000000     0.443000000000     0.729200000000     0          
C417     C      0.181200000000     0.495300000000     0.934700000000     0          
C418     C      0.189900000000     0.493800000000     0.855500000000     0          
C419     C      0.130300000000     0.462600000000     0.787500000000     0          
H420     H      0.124200000000     0.442700000000     0.820100000000     0          
C421     C      0.653100000000     0.148800000000     0.960900000000     0          
H422     H      0.635300000000     0.131300000000     0.927800000000     0          
C423     C      0.742000000000     0.226400000000     0.746600000000     0          
H424     H      0.730400000000     0.212200000000     0.702100000000     0          
C425     C      0.729690000000     0.218990000000     0.828700000000     0          
C426     C      0.593250000000     0.086250000000     0.632900000000     0          
O427     O      0.585100000000     0.053920000000     0.647200000000     0          
O428     O      0.579460000000     0.097190000000     0.580600000000     0          
C429     C      0.628840000000     0.149440000000     0.688100000000     0          
H430     H      0.615700000000     0.155900000000     0.654300000000     0          
C431     C      0.622800000000     0.114700000000     0.685200000000     0          
C432     C      0.671500000000     0.164900000000     0.790900000000     0          
C433     C      0.653470000000     0.174770000000     0.738900000000     0          
H434     H      0.657900000000     0.198400000000     0.738000000000     0          
C435     C      0.641700000000     0.104400000000     0.732400000000     0          
H436     H      0.638100000000     0.081100000000     0.729200000000     0          
C437     C      0.685900000000     0.181200000000     0.934700000000     0          
C438     C      0.696100000000     0.189900000000     0.855500000000     0          
C439     C      0.667700000000     0.130300000000     0.787500000000     0          
H440     H      0.681500000000     0.124200000000     0.820100000000     0          
C441     C      0.495700000000     0.346900000000     0.960900000000     0          
H442     H      0.496000000000     0.364700000000     0.927800000000     0          
C443     C      0.484400000000     0.258000000000     0.746600000000     0          
H444     H      0.481800000000     0.269600000000     0.702100000000     0          
C445     C      0.489300000000     0.270310000000     0.828700000000     0          
C446     C      0.493000000000     0.406750000000     0.632900000000     0          
O447     O      0.468820000000     0.414900000000     0.647200000000     0          
O448     O      0.517730000000     0.420540000000     0.580600000000     0          
C449     C      0.520600000000     0.371160000000     0.688100000000     0          
H450     H      0.540200000000     0.384300000000     0.654300000000     0          
C451     C      0.491900000000     0.377200000000     0.685200000000     0          
C452     C      0.493400000000     0.328500000000     0.790900000000     0          
C453     C      0.521300000000     0.346530000000     0.738900000000     0          
H454     H      0.540500000000     0.342100000000     0.738000000000     0          
C455     C      0.462700000000     0.358300000000     0.732400000000     0          
H456     H      0.443000000000     0.361900000000     0.729200000000     0          
C457     C      0.495300000000     0.314100000000     0.934700000000     0          
C458     C      0.493800000000     0.303900000000     0.855500000000     0          
C459     C      0.462600000000     0.332300000000     0.787500000000     0          
H460     H      0.442700000000     0.318500000000     0.820100000000     0          
C461     C      0.851200000000     0.504300000000     0.960900000000     0          
H462     H      0.868700000000     0.504000000000     0.927800000000     0          
C463     C      0.773600000000     0.515600000000     0.746600000000     0          
H464     H      0.787800000000     0.518200000000     0.702100000000     0          
C465     C      0.781010000000     0.510700000000     0.828700000000     0          
C466     C      0.913750000000     0.507000000000     0.632900000000     0          
O467     O      0.946080000000     0.531180000000     0.647200000000     0          
O468     O      0.902810000000     0.482270000000     0.580600000000     0          
C469     C      0.850560000000     0.479400000000     0.688100000000     0          
H470     H      0.844100000000     0.459800000000     0.654300000000     0          
C471     C      0.885300000000     0.508100000000     0.685200000000     0          
C472     C      0.835100000000     0.506600000000     0.790900000000     0          
C473     C      0.825230000000     0.478700000000     0.738900000000     0          
H474     H      0.801600000000     0.459500000000     0.738000000000     0          
C475     C      0.895600000000     0.537300000000     0.732400000000     0          
H476     H      0.918900000000     0.557000000000     0.729200000000     0          
C477     C      0.818800000000     0.504700000000     0.934700000000     0          
C478     C      0.810100000000     0.506200000000     0.855500000000     0          
C479     C      0.869700000000     0.537400000000     0.787500000000     0          
H480     H      0.875800000000     0.557300000000     0.820100000000     0          
Cl481    Cl     0.277400000000     0.722600000000     0.000000000000     0          
Fe482    Fe     0.247600000000     0.752400000000     0.000000000000     0          
Fe483    Fe     0.247600000000     0.495200000000     0.000000000000     0          
Cl484    Cl     0.445200000000     0.722600000000     0.000000000000     0          
Fe485    Fe     0.504800000000     0.752400000000     0.000000000000     0          
Fe486    Fe     0.752400000000     0.247600000000     0.000000000000     0          
Cl487    Cl     0.722600000000     0.445200000000     0.000000000000     0          
Fe488    Fe     0.752400000000     0.504800000000     0.000000000000     0          
Fe489    Fe     0.495200000000     0.247600000000     0.000000000000     0          
O490     O      0.031760000000     0.474960000000     0.500000000000     0          
O491     O      0.525040000000     0.556800000000     0.500000000000     0          
O492     O      0.443200000000     0.968240000000     0.500000000000     0          
O493     O      0.968240000000     0.525040000000     0.500000000000     0          
O494     O      0.474960000000     0.443200000000     0.500000000000     0          
O495     O      0.556800000000     0.031760000000     0.500000000000     0          
O496     O      0.474960000000     0.031760000000     0.500000000000     0          
O497     O      0.556800000000     0.525040000000     0.500000000000     0          
O498     O      0.968240000000     0.443200000000     0.500000000000     0          
O499     O      0.525040000000     0.968240000000     0.500000000000     0          
O500     O      0.443200000000     0.474960000000     0.500000000000     0          
O501     O      0.031760000000     0.556800000000     0.500000000000     0          
N502     N      0.246550000000     0.753450000000     0.878800000000     0          
N503     N      0.246550000000     0.493100000000     0.878800000000     0          
N504     N      0.506900000000     0.753450000000     0.878800000000     0          
N505     N      0.753450000000     0.246550000000     0.878800000000     0          
N506     N      0.753450000000     0.506900000000     0.878800000000     0          
N507     N      0.493100000000     0.246550000000     0.878800000000     0          
N508     N      0.753450000000     0.246550000000     0.121200000000     0          
N509     N      0.493100000000     0.246550000000     0.121200000000     0          
N510     N      0.753450000000     0.506900000000     0.121200000000     0          
N511     N      0.246550000000     0.753450000000     0.121200000000     0          
N512     N      0.506900000000     0.753450000000     0.121200000000     0          
N513     N      0.246550000000     0.493100000000     0.121200000000     0          
O514     O      0.033030000000     0.516510000000     0.393200000000     0          
O515     O      0.483490000000     0.516510000000     0.393200000000     0          
O516     O      0.483490000000     0.966970000000     0.393200000000     0          
O517     O      0.966970000000     0.483490000000     0.393200000000     0          
O518     O      0.516510000000     0.483480000000     0.393200000000     0          
O519     O      0.516510000000     0.033030000000     0.393200000000     0          
O520     O      0.516510000000     0.033030000000     0.606800000000     0          
O521     O      0.516510000000     0.483490000000     0.606800000000     0          
O522     O      0.966970000000     0.483490000000     0.606800000000     0          
O523     O      0.483490000000     0.966970000000     0.606800000000     0          
O524     O      0.483490000000     0.516510000000     0.606800000000     0          
O525     O      0.033030000000     0.516510000000     0.606800000000     0          
Zr526    Zr     0.000000000000     0.458780000000     0.605640000000     0          
Zr527    Zr     0.541220000000     0.541220000000     0.605640000000     0          
Zr528    Zr     0.458780000000     0.000000000000     0.605640000000     0          
Zr529    Zr     0.000000000000     0.541220000000     0.605640000000     0          
Zr530    Zr     0.458780000000     0.458780000000     0.605640000000     0          
Zr531    Zr     0.541220000000     0.000000000000     0.605640000000     0          
Zr532    Zr     0.458780000000     0.000000000000     0.394360000000     0          
Zr533    Zr     0.541220000000     0.541220000000     0.394360000000     0          
Zr534    Zr     0.000000000000     0.458780000000     0.394360000000     0          
Zr535    Zr     0.541220000000     0.000000000000     0.394360000000     0          
Zr536    Zr     0.458780000000     0.458780000000     0.394360000000     0          
Zr537    Zr     0.000000000000     0.541220000000     0.394360000000     0          
Zr538    Zr     0.066480000000     0.533240000000     0.500000000000     0          
Zr539    Zr     0.466760000000     0.533240000000     0.500000000000     0          
Zr540    Zr     0.466760000000     0.933520000000     0.500000000000     0          
Zr541    Zr     0.933520000000     0.466760000000     0.500000000000     0          
Zr542    Zr     0.533240000000     0.466760000000     0.500000000000     0          
Zr543    Zr     0.533240000000     0.066480000000     0.500000000000     0          
N544     N      0.199700000000     0.706200000000     0.000000000000     0          
N545     N      0.293800000000     0.493500000000     0.000000000000     0          
N546     N      0.506500000000     0.800300000000     0.000000000000     0          
N547     N      0.800300000000     0.293800000000     0.000000000000     0          
N548     N      0.706200000000     0.506500000000     0.000000000000     0          
N549     N      0.493500000000     0.199700000000     0.000000000000     0          
N550     N      0.706200000000     0.199700000000     0.000000000000     0          
N551     N      0.493500000000     0.293800000000     0.000000000000     0          
N552     N      0.800300000000     0.506500000000     0.000000000000     0          
N553     N      0.293800000000     0.800300000000     0.000000000000     0          
N554     N      0.506500000000     0.706200000000     0.000000000000     0          
N555     N      0.199700000000     0.493500000000     0.000000000000     0          
Cl556    Cl     0.429600000000     0.214800000000     0.000000000000     0          
Cl557    Cl     0.785200000000     0.214800000000     0.000000000000     0          
Cl558    Cl     0.214800000000     0.429600000000     0.000000000000     0          


