data_QUHVEW

_audit_creation_method RASPA-1.0
_audit_creation_date 2020-11-2
_audit_author_name 'Rocio Bueno-Perez'

_cell_length_a    32.7304
_cell_length_b    32.7304
_cell_length_c    32.7304
_cell_angle_alpha 90
_cell_angle_beta  90
_cell_angle_gamma 90
_cell_volume      35063.4

_symmetry_cell_setting          cubic
_symmetry_space_group_name_Hall 'P 1'
_symmetry_space_group_name_H-M  'P 1'
_symmetry_Int_Tables_number     1

_symmetry_equiv_pos_as_xyz 'x,y,z'

loop_
_atom_site_label
_atom_site_type_symbol
_atom_site_fract_x
_atom_site_fract_y
_atom_site_fract_z
_atom_site_charge
Zr1      Zr     0.500000000000     0.500000000000     0.575490000000     0          
O1       O      0.463380000000     0.463380000000     0.536620000000     0          
H1       H      0.448270000000     0.448270000000     0.551730000000     0          
O2       O      0.500000000000     0.558450000000     0.609340000000     0          
C3       C      0.500000000000     0.616100000000     0.668700000000     0          
H2       H      0.500000000000     0.588000000000     0.676000000000     0          
C4       C      0.500000000000     0.646500000000     0.698800000000     0          
H3       H      0.500000000000     0.639300000000     0.727000000000     0          
C1       C      0.500000000000     0.596160000000     0.596160000000     0          
C2       C      0.500000000000     0.628100000000     0.628100000000     0          
C5       C      0.500000000000     0.687000000000     0.687000000000     0          
C6       C      0.500000000000     0.721000000000     0.721000000000     0          
C7       C      0.462000000000     0.734830000000     0.734830000000     0          
C8       C      0.426100000000     0.718200000000     0.718200000000     0          
C9       C      0.397700000000     0.703400000000     0.703400000000     0          
H4       H      0.374300000000     0.691300000000     0.691300000000     0          
O1       O      0.536620000000     0.463380000000     0.536620000000     0          
H1       H      0.551730000000     0.448270000000     0.551730000000     0          
O2       O      0.441550000000     0.500000000000     0.609340000000     0          
C3       C      0.383900000000     0.500000000000     0.668700000000     0          
H2       H      0.412000000000     0.500000000000     0.676000000000     0          
C4       C      0.353500000000     0.500000000000     0.698800000000     0          
H3       H      0.360700000000     0.500000000000     0.727000000000     0          
C1       C      0.403840000000     0.500000000000     0.596160000000     0          
C2       C      0.371900000000     0.500000000000     0.628100000000     0          
C5       C      0.313000000000     0.500000000000     0.687000000000     0          
C6       C      0.279000000000     0.500000000000     0.721000000000     0          
C7       C      0.265170000000     0.462000000000     0.734830000000     0          
C8       C      0.281800000000     0.426100000000     0.718200000000     0          
C9       C      0.296600000000     0.397700000000     0.703400000000     0          
H4       H      0.308700000000     0.374300000000     0.691300000000     0          
O1       O      0.536620000000     0.536620000000     0.536620000000     0          
H1       H      0.551730000000     0.551730000000     0.551730000000     0          
O2       O      0.500000000000     0.441550000000     0.609340000000     0          
C3       C      0.500000000000     0.383900000000     0.668700000000     0          
H2       H      0.500000000000     0.412000000000     0.676000000000     0          
C4       C      0.500000000000     0.353500000000     0.698800000000     0          
H3       H      0.500000000000     0.360700000000     0.727000000000     0          
C1       C      0.500000000000     0.403840000000     0.596160000000     0          
C2       C      0.500000000000     0.371900000000     0.628100000000     0          
C5       C      0.500000000000     0.313000000000     0.687000000000     0          
C6       C      0.500000000000     0.279000000000     0.721000000000     0          
C7       C      0.538000000000     0.265170000000     0.734830000000     0          
C8       C      0.573900000000     0.281800000000     0.718200000000     0          
C9       C      0.602300000000     0.296600000000     0.703400000000     0          
H4       H      0.625700000000     0.308700000000     0.691300000000     0          
O1       O      0.463380000000     0.536620000000     0.536620000000     0          
H1       H      0.448270000000     0.551730000000     0.551730000000     0          
O2       O      0.558450000000     0.500000000000     0.609340000000     0          
C3       C      0.616100000000     0.500000000000     0.668700000000     0          
H2       H      0.588000000000     0.500000000000     0.676000000000     0          
C4       C      0.646500000000     0.500000000000     0.698800000000     0          
H3       H      0.639300000000     0.500000000000     0.727000000000     0          
C1       C      0.596160000000     0.500000000000     0.596160000000     0          
C2       C      0.628100000000     0.500000000000     0.628100000000     0          
C5       C      0.687000000000     0.500000000000     0.687000000000     0          
C6       C      0.721000000000     0.500000000000     0.721000000000     0          
C7       C      0.734830000000     0.538000000000     0.734830000000     0          
C8       C      0.718200000000     0.573900000000     0.718200000000     0          
C9       C      0.703400000000     0.602300000000     0.703400000000     0          
H4       H      0.691300000000     0.625700000000     0.691300000000     0          
Zr1      Zr     0.500000000000     0.500000000000     0.424510000000     0          
O1       O      0.463380000000     0.536620000000     0.463380000000     0          
H1       H      0.448270000000     0.551730000000     0.448270000000     0          
O2       O      0.500000000000     0.441550000000     0.390660000000     0          
C3       C      0.500000000000     0.383900000000     0.331300000000     0          
H2       H      0.500000000000     0.412000000000     0.324000000000     0          
C4       C      0.500000000000     0.353500000000     0.301200000000     0          
H3       H      0.500000000000     0.360700000000     0.273000000000     0          
C1       C      0.500000000000     0.403840000000     0.403840000000     0          
C2       C      0.500000000000     0.371900000000     0.371900000000     0          
C5       C      0.500000000000     0.313000000000     0.313000000000     0          
C6       C      0.500000000000     0.279000000000     0.279000000000     0          
C7       C      0.462000000000     0.265170000000     0.265170000000     0          
C8       C      0.426100000000     0.281800000000     0.281800000000     0          
C9       C      0.397700000000     0.296600000000     0.296600000000     0          
H4       H      0.374300000000     0.308700000000     0.308700000000     0          
O1       O      0.463380000000     0.463380000000     0.463380000000     0          
H1       H      0.448270000000     0.448270000000     0.448270000000     0          
O2       O      0.558450000000     0.500000000000     0.390660000000     0          
C3       C      0.616100000000     0.500000000000     0.331300000000     0          
H2       H      0.588000000000     0.500000000000     0.324000000000     0          
C4       C      0.646500000000     0.500000000000     0.301200000000     0          
H3       H      0.639300000000     0.500000000000     0.273000000000     0          
C1       C      0.596160000000     0.500000000000     0.403840000000     0          
C2       C      0.628100000000     0.500000000000     0.371900000000     0          
C5       C      0.687000000000     0.500000000000     0.313000000000     0          
C6       C      0.721000000000     0.500000000000     0.279000000000     0          
C7       C      0.734830000000     0.462000000000     0.265170000000     0          
C8       C      0.718200000000     0.426100000000     0.281800000000     0          
C9       C      0.703400000000     0.397700000000     0.296600000000     0          
H4       H      0.691300000000     0.374300000000     0.308700000000     0          
O1       O      0.536620000000     0.463380000000     0.463380000000     0          
H1       H      0.551730000000     0.448270000000     0.448270000000     0          
O2       O      0.500000000000     0.558450000000     0.390660000000     0          
C3       C      0.500000000000     0.616100000000     0.331300000000     0          
H2       H      0.500000000000     0.588000000000     0.324000000000     0          
C4       C      0.500000000000     0.646500000000     0.301200000000     0          
H3       H      0.500000000000     0.639300000000     0.273000000000     0          
C1       C      0.500000000000     0.596160000000     0.403840000000     0          
C2       C      0.500000000000     0.628100000000     0.371900000000     0          
C5       C      0.500000000000     0.687000000000     0.313000000000     0          
C6       C      0.500000000000     0.721000000000     0.279000000000     0          
C7       C      0.538000000000     0.734830000000     0.265170000000     0          
C8       C      0.573900000000     0.718200000000     0.281800000000     0          
C9       C      0.602300000000     0.703400000000     0.296600000000     0          
H4       H      0.625700000000     0.691300000000     0.308700000000     0          
O1       O      0.536620000000     0.536620000000     0.463380000000     0          
H1       H      0.551730000000     0.551730000000     0.448270000000     0          
O2       O      0.441550000000     0.500000000000     0.390660000000     0          
C3       C      0.383900000000     0.500000000000     0.331300000000     0          
H2       H      0.412000000000     0.500000000000     0.324000000000     0          
C4       C      0.353500000000     0.500000000000     0.301200000000     0          
H3       H      0.360700000000     0.500000000000     0.273000000000     0          
C1       C      0.403840000000     0.500000000000     0.403840000000     0          
C2       C      0.371900000000     0.500000000000     0.371900000000     0          
C5       C      0.313000000000     0.500000000000     0.313000000000     0          
C6       C      0.279000000000     0.500000000000     0.279000000000     0          
C7       C      0.265170000000     0.538000000000     0.265170000000     0          
C8       C      0.281800000000     0.573900000000     0.281800000000     0          
C9       C      0.296600000000     0.602300000000     0.296600000000     0          
H4       H      0.308700000000     0.625700000000     0.308700000000     0          
Zr1      Zr     0.575490000000     0.500000000000     0.500000000000     0          
O2       O      0.609340000000     0.500000000000     0.558450000000     0          
C3       C      0.668700000000     0.500000000000     0.616100000000     0          
H2       H      0.676000000000     0.500000000000     0.588000000000     0          
C4       C      0.698800000000     0.500000000000     0.646500000000     0          
H3       H      0.727000000000     0.500000000000     0.639300000000     0          
C7       C      0.734830000000     0.462000000000     0.734830000000     0          
C8       C      0.718200000000     0.426100000000     0.718200000000     0          
C9       C      0.703400000000     0.397700000000     0.703400000000     0          
H4       H      0.691300000000     0.374300000000     0.691300000000     0          
Zr1      Zr     0.500000000000     0.575490000000     0.500000000000     0          
O2       O      0.500000000000     0.609340000000     0.558450000000     0          
C3       C      0.500000000000     0.668700000000     0.616100000000     0          
H2       H      0.500000000000     0.676000000000     0.588000000000     0          
C4       C      0.500000000000     0.698800000000     0.646500000000     0          
H3       H      0.500000000000     0.727000000000     0.639300000000     0          
C7       C      0.538000000000     0.734830000000     0.734830000000     0          
C8       C      0.573900000000     0.718200000000     0.718200000000     0          
C9       C      0.602300000000     0.703400000000     0.703400000000     0          
H4       H      0.625700000000     0.691300000000     0.691300000000     0          
Zr1      Zr     0.424510000000     0.500000000000     0.500000000000     0          
O2       O      0.390660000000     0.500000000000     0.558450000000     0          
C3       C      0.331300000000     0.500000000000     0.616100000000     0          
H2       H      0.324000000000     0.500000000000     0.588000000000     0          
C4       C      0.301200000000     0.500000000000     0.646500000000     0          
H3       H      0.273000000000     0.500000000000     0.639300000000     0          
C7       C      0.265170000000     0.538000000000     0.734830000000     0          
C8       C      0.281800000000     0.573900000000     0.718200000000     0          
C9       C      0.296600000000     0.602300000000     0.703400000000     0          
H4       H      0.308700000000     0.625700000000     0.691300000000     0          
Zr1      Zr     0.500000000000     0.424510000000     0.500000000000     0          
O2       O      0.500000000000     0.390660000000     0.558450000000     0          
C3       C      0.500000000000     0.331300000000     0.616100000000     0          
H2       H      0.500000000000     0.324000000000     0.588000000000     0          
C4       C      0.500000000000     0.301200000000     0.646500000000     0          
H3       H      0.500000000000     0.273000000000     0.639300000000     0          
C7       C      0.462000000000     0.265170000000     0.734830000000     0          
C8       C      0.426100000000     0.281800000000     0.718200000000     0          
C9       C      0.397700000000     0.296600000000     0.703400000000     0          
H4       H      0.374300000000     0.308700000000     0.691300000000     0          
O2       O      0.609340000000     0.500000000000     0.441550000000     0          
C3       C      0.668700000000     0.500000000000     0.383900000000     0          
H2       H      0.676000000000     0.500000000000     0.412000000000     0          
C4       C      0.698800000000     0.500000000000     0.353500000000     0          
H3       H      0.727000000000     0.500000000000     0.360700000000     0          
C7       C      0.734830000000     0.538000000000     0.265170000000     0          
C8       C      0.718200000000     0.573900000000     0.281800000000     0          
C9       C      0.703400000000     0.602300000000     0.296600000000     0          
H4       H      0.691300000000     0.625700000000     0.308700000000     0          
O2       O      0.500000000000     0.609340000000     0.441550000000     0          
C3       C      0.500000000000     0.668700000000     0.383900000000     0          
H2       H      0.500000000000     0.676000000000     0.412000000000     0          
C4       C      0.500000000000     0.698800000000     0.353500000000     0          
H3       H      0.500000000000     0.727000000000     0.360700000000     0          
C7       C      0.462000000000     0.734830000000     0.265170000000     0          
C8       C      0.426100000000     0.718200000000     0.281800000000     0          
C9       C      0.397700000000     0.703400000000     0.296600000000     0          
H4       H      0.374300000000     0.691300000000     0.308700000000     0          
O2       O      0.390660000000     0.500000000000     0.441550000000     0          
C3       C      0.331300000000     0.500000000000     0.383900000000     0          
H2       H      0.324000000000     0.500000000000     0.412000000000     0          
C4       C      0.301200000000     0.500000000000     0.353500000000     0          
H3       H      0.273000000000     0.500000000000     0.360700000000     0          
C7       C      0.265170000000     0.462000000000     0.265170000000     0          
C8       C      0.281800000000     0.426100000000     0.281800000000     0          
C9       C      0.296600000000     0.397700000000     0.296600000000     0          
H4       H      0.308700000000     0.374300000000     0.308700000000     0          
O2       O      0.500000000000     0.390660000000     0.441550000000     0          
C3       C      0.500000000000     0.331300000000     0.383900000000     0          
H2       H      0.500000000000     0.324000000000     0.412000000000     0          
C4       C      0.500000000000     0.301200000000     0.353500000000     0          
H3       H      0.500000000000     0.273000000000     0.360700000000     0          
C7       C      0.538000000000     0.265170000000     0.265170000000     0          
C8       C      0.573900000000     0.281800000000     0.281800000000     0          
C9       C      0.602300000000     0.296600000000     0.296600000000     0          
H4       H      0.625700000000     0.308700000000     0.308700000000     0          
O2       O      0.558450000000     0.609340000000     0.500000000000     0          
C3       C      0.616100000000     0.668700000000     0.500000000000     0          
H2       H      0.588000000000     0.676000000000     0.500000000000     0          
C4       C      0.646500000000     0.698800000000     0.500000000000     0          
H3       H      0.639300000000     0.727000000000     0.500000000000     0          
C1       C      0.596160000000     0.596160000000     0.500000000000     0          
C2       C      0.628100000000     0.628100000000     0.500000000000     0          
C5       C      0.687000000000     0.687000000000     0.500000000000     0          
C6       C      0.721000000000     0.721000000000     0.500000000000     0          
C7       C      0.734830000000     0.734830000000     0.462000000000     0          
C8       C      0.718200000000     0.718200000000     0.426100000000     0          
C9       C      0.703400000000     0.703400000000     0.397700000000     0          
H4       H      0.691300000000     0.691300000000     0.374300000000     0          
O2       O      0.558450000000     0.390660000000     0.500000000000     0          
C3       C      0.616100000000     0.331300000000     0.500000000000     0          
H2       H      0.588000000000     0.324000000000     0.500000000000     0          
C4       C      0.646500000000     0.301200000000     0.500000000000     0          
H3       H      0.639300000000     0.273000000000     0.500000000000     0          
C1       C      0.596160000000     0.403840000000     0.500000000000     0          
C2       C      0.628100000000     0.371900000000     0.500000000000     0          
C5       C      0.687000000000     0.313000000000     0.500000000000     0          
C6       C      0.721000000000     0.279000000000     0.500000000000     0          
C7       C      0.734830000000     0.265170000000     0.538000000000     0          
C8       C      0.718200000000     0.281800000000     0.573900000000     0          
C9       C      0.703400000000     0.296600000000     0.602300000000     0          
H4       H      0.691300000000     0.308700000000     0.625700000000     0          
O2       O      0.609340000000     0.558450000000     0.500000000000     0          
C3       C      0.668700000000     0.616100000000     0.500000000000     0          
H2       H      0.676000000000     0.588000000000     0.500000000000     0          
C4       C      0.698800000000     0.646500000000     0.500000000000     0          
H3       H      0.727000000000     0.639300000000     0.500000000000     0          
C7       C      0.734830000000     0.734830000000     0.538000000000     0          
C8       C      0.718200000000     0.718200000000     0.573900000000     0          
C9       C      0.703400000000     0.703400000000     0.602300000000     0          
H4       H      0.691300000000     0.691300000000     0.625700000000     0          
O2       O      0.441550000000     0.609340000000     0.500000000000     0          
C3       C      0.383900000000     0.668700000000     0.500000000000     0          
H2       H      0.412000000000     0.676000000000     0.500000000000     0          
C4       C      0.353500000000     0.698800000000     0.500000000000     0          
H3       H      0.360700000000     0.727000000000     0.500000000000     0          
C1       C      0.403840000000     0.596160000000     0.500000000000     0          
C2       C      0.371900000000     0.628100000000     0.500000000000     0          
C5       C      0.313000000000     0.687000000000     0.500000000000     0          
C6       C      0.279000000000     0.721000000000     0.500000000000     0          
C7       C      0.265170000000     0.734830000000     0.538000000000     0          
C8       C      0.281800000000     0.718200000000     0.573900000000     0          
C9       C      0.296600000000     0.703400000000     0.602300000000     0          
H4       H      0.308700000000     0.691300000000     0.625700000000     0          
O2       O      0.390660000000     0.441550000000     0.500000000000     0          
C3       C      0.331300000000     0.383900000000     0.500000000000     0          
H2       H      0.324000000000     0.412000000000     0.500000000000     0          
C4       C      0.301200000000     0.353500000000     0.500000000000     0          
H3       H      0.273000000000     0.360700000000     0.500000000000     0          
C1       C      0.403840000000     0.403840000000     0.500000000000     0          
C2       C      0.371900000000     0.371900000000     0.500000000000     0          
C5       C      0.313000000000     0.313000000000     0.500000000000     0          
C6       C      0.279000000000     0.279000000000     0.500000000000     0          
C7       C      0.265170000000     0.265170000000     0.538000000000     0          
C8       C      0.281800000000     0.281800000000     0.573900000000     0          
C9       C      0.296600000000     0.296600000000     0.602300000000     0          
H4       H      0.308700000000     0.308700000000     0.625700000000     0          
O2       O      0.441550000000     0.390660000000     0.500000000000     0          
C3       C      0.383900000000     0.331300000000     0.500000000000     0          
H2       H      0.412000000000     0.324000000000     0.500000000000     0          
C4       C      0.353500000000     0.301200000000     0.500000000000     0          
H3       H      0.360700000000     0.273000000000     0.500000000000     0          
C7       C      0.265170000000     0.265170000000     0.462000000000     0          
C8       C      0.281800000000     0.281800000000     0.426100000000     0          
C9       C      0.296600000000     0.296600000000     0.397700000000     0          
H4       H      0.308700000000     0.308700000000     0.374300000000     0          
O2       O      0.609340000000     0.441550000000     0.500000000000     0          
C3       C      0.668700000000     0.383900000000     0.500000000000     0          
H2       H      0.676000000000     0.412000000000     0.500000000000     0          
C4       C      0.698800000000     0.353500000000     0.500000000000     0          
H3       H      0.727000000000     0.360700000000     0.500000000000     0          
C7       C      0.734830000000     0.265170000000     0.462000000000     0          
C8       C      0.718200000000     0.281800000000     0.426100000000     0          
C9       C      0.703400000000     0.296600000000     0.397700000000     0          
H4       H      0.691300000000     0.308700000000     0.374300000000     0          
O2       O      0.390660000000     0.558450000000     0.500000000000     0          
C3       C      0.331300000000     0.616100000000     0.500000000000     0          
H2       H      0.324000000000     0.588000000000     0.500000000000     0          
C4       C      0.301200000000     0.646500000000     0.500000000000     0          
H3       H      0.273000000000     0.639300000000     0.500000000000     0          
C7       C      0.265170000000     0.734830000000     0.462000000000     0          
C8       C      0.281800000000     0.718200000000     0.426100000000     0          
C9       C      0.296600000000     0.703400000000     0.397700000000     0          
H4       H      0.308700000000     0.691300000000     0.374300000000     0          
Zr1      Zr     0.500000000000     0.000000000000     0.075490000000     0          
O1       O      0.463380000000     0.963380000000     0.036620000000     0          
H1       H      0.448270000000     0.948270000000     0.051730000000     0          
O2       O      0.500000000000     0.058450000000     0.109340000000     0          
C3       C      0.500000000000     0.116100000000     0.168700000000     0          
H2       H      0.500000000000     0.088000000000     0.176000000000     0          
C4       C      0.500000000000     0.146500000000     0.198800000000     0          
H3       H      0.500000000000     0.139300000000     0.227000000000     0          
C1       C      0.500000000000     0.096160000000     0.096160000000     0          
C2       C      0.500000000000     0.128100000000     0.128100000000     0          
C5       C      0.500000000000     0.187000000000     0.187000000000     0          
C6       C      0.500000000000     0.221000000000     0.221000000000     0          
C7       C      0.462000000000     0.234830000000     0.234830000000     0          
C8       C      0.426100000000     0.218200000000     0.218200000000     0          
C9       C      0.397700000000     0.203400000000     0.203400000000     0          
H4       H      0.374300000000     0.191300000000     0.191300000000     0          
O1       O      0.536620000000     0.963380000000     0.036620000000     0          
H1       H      0.551730000000     0.948270000000     0.051730000000     0          
O2       O      0.441550000000     0.000000000000     0.109340000000     0          
C3       C      0.383900000000     0.000000000000     0.168700000000     0          
H2       H      0.412000000000     0.000000000000     0.176000000000     0          
C4       C      0.353500000000     0.000000000000     0.198800000000     0          
H3       H      0.360700000000     0.000000000000     0.227000000000     0          
C1       C      0.403840000000     0.000000000000     0.096160000000     0          
C2       C      0.371900000000     0.000000000000     0.128100000000     0          
C5       C      0.313000000000     0.000000000000     0.187000000000     0          
C6       C      0.279000000000     0.000000000000     0.221000000000     0          
C7       C      0.265170000000     0.962000000000     0.234830000000     0          
C8       C      0.281800000000     0.926100000000     0.218200000000     0          
C9       C      0.296600000000     0.897700000000     0.203400000000     0          
H4       H      0.308700000000     0.874300000000     0.191300000000     0          
O1       O      0.536620000000     0.036620000000     0.036620000000     0          
H1       H      0.551730000000     0.051730000000     0.051730000000     0          
O2       O      0.500000000000     0.941550000000     0.109340000000     0          
C3       C      0.500000000000     0.883900000000     0.168700000000     0          
H2       H      0.500000000000     0.912000000000     0.176000000000     0          
C4       C      0.500000000000     0.853500000000     0.198800000000     0          
H3       H      0.500000000000     0.860700000000     0.227000000000     0          
C1       C      0.500000000000     0.903840000000     0.096160000000     0          
C2       C      0.500000000000     0.871900000000     0.128100000000     0          
C5       C      0.500000000000     0.813000000000     0.187000000000     0          
C6       C      0.500000000000     0.779000000000     0.221000000000     0          
C7       C      0.538000000000     0.765170000000     0.234830000000     0          
C8       C      0.573900000000     0.781800000000     0.218200000000     0          
C9       C      0.602300000000     0.796600000000     0.203400000000     0          
H4       H      0.625700000000     0.808700000000     0.191300000000     0          
O1       O      0.463380000000     0.036620000000     0.036620000000     0          
H1       H      0.448270000000     0.051730000000     0.051730000000     0          
O2       O      0.558450000000     0.000000000000     0.109340000000     0          
C3       C      0.616100000000     0.000000000000     0.168700000000     0          
H2       H      0.588000000000     0.000000000000     0.176000000000     0          
C4       C      0.646500000000     0.000000000000     0.198800000000     0          
H3       H      0.639300000000     0.000000000000     0.227000000000     0          
C1       C      0.596160000000     0.000000000000     0.096160000000     0          
C2       C      0.628100000000     0.000000000000     0.128100000000     0          
C5       C      0.687000000000     0.000000000000     0.187000000000     0          
C6       C      0.721000000000     0.000000000000     0.221000000000     0          
C7       C      0.734830000000     0.038000000000     0.234830000000     0          
C8       C      0.718200000000     0.073900000000     0.218200000000     0          
C9       C      0.703400000000     0.102300000000     0.203400000000     0          
H4       H      0.691300000000     0.125700000000     0.191300000000     0          
Zr1      Zr     0.500000000000     0.000000000000     0.924510000000     0          
O1       O      0.463380000000     0.036620000000     0.963380000000     0          
H1       H      0.448270000000     0.051730000000     0.948270000000     0          
O2       O      0.500000000000     0.941550000000     0.890660000000     0          
C3       C      0.500000000000     0.883900000000     0.831300000000     0          
H2       H      0.500000000000     0.912000000000     0.824000000000     0          
C4       C      0.500000000000     0.853500000000     0.801200000000     0          
H3       H      0.500000000000     0.860700000000     0.773000000000     0          
C1       C      0.500000000000     0.903840000000     0.903840000000     0          
C2       C      0.500000000000     0.871900000000     0.871900000000     0          
C5       C      0.500000000000     0.813000000000     0.813000000000     0          
C6       C      0.500000000000     0.779000000000     0.779000000000     0          
C7       C      0.462000000000     0.765170000000     0.765170000000     0          
C8       C      0.426100000000     0.781800000000     0.781800000000     0          
C9       C      0.397700000000     0.796600000000     0.796600000000     0          
H4       H      0.374300000000     0.808700000000     0.808700000000     0          
O1       O      0.463380000000     0.963380000000     0.963380000000     0          
H1       H      0.448270000000     0.948270000000     0.948270000000     0          
O2       O      0.558450000000     0.000000000000     0.890660000000     0          
C3       C      0.616100000000     0.000000000000     0.831300000000     0          
H2       H      0.588000000000     0.000000000000     0.824000000000     0          
C4       C      0.646500000000     0.000000000000     0.801200000000     0          
H3       H      0.639300000000     0.000000000000     0.773000000000     0          
C1       C      0.596160000000     0.000000000000     0.903840000000     0          
C2       C      0.628100000000     0.000000000000     0.871900000000     0          
C5       C      0.687000000000     0.000000000000     0.813000000000     0          
C6       C      0.721000000000     0.000000000000     0.779000000000     0          
C7       C      0.734830000000     0.962000000000     0.765170000000     0          
C8       C      0.718200000000     0.926100000000     0.781800000000     0          
C9       C      0.703400000000     0.897700000000     0.796600000000     0          
H4       H      0.691300000000     0.874300000000     0.808700000000     0          
O1       O      0.536620000000     0.963380000000     0.963380000000     0          
H1       H      0.551730000000     0.948270000000     0.948270000000     0          
O2       O      0.500000000000     0.058450000000     0.890660000000     0          
C3       C      0.500000000000     0.116100000000     0.831300000000     0          
H2       H      0.500000000000     0.088000000000     0.824000000000     0          
C4       C      0.500000000000     0.146500000000     0.801200000000     0          
H3       H      0.500000000000     0.139300000000     0.773000000000     0          
C1       C      0.500000000000     0.096160000000     0.903840000000     0          
C2       C      0.500000000000     0.128100000000     0.871900000000     0          
C5       C      0.500000000000     0.187000000000     0.813000000000     0          
C6       C      0.500000000000     0.221000000000     0.779000000000     0          
C7       C      0.538000000000     0.234830000000     0.765170000000     0          
C8       C      0.573900000000     0.218200000000     0.781800000000     0          
C9       C      0.602300000000     0.203400000000     0.796600000000     0          
H4       H      0.625700000000     0.191300000000     0.808700000000     0          
O1       O      0.536620000000     0.036620000000     0.963380000000     0          
H1       H      0.551730000000     0.051730000000     0.948270000000     0          
O2       O      0.441550000000     0.000000000000     0.890660000000     0          
C3       C      0.383900000000     0.000000000000     0.831300000000     0          
H2       H      0.412000000000     0.000000000000     0.824000000000     0          
C4       C      0.353500000000     0.000000000000     0.801200000000     0          
H3       H      0.360700000000     0.000000000000     0.773000000000     0          
C1       C      0.403840000000     0.000000000000     0.903840000000     0          
C2       C      0.371900000000     0.000000000000     0.871900000000     0          
C5       C      0.313000000000     0.000000000000     0.813000000000     0          
C6       C      0.279000000000     0.000000000000     0.779000000000     0          
C7       C      0.265170000000     0.038000000000     0.765170000000     0          
C8       C      0.281800000000     0.073900000000     0.781800000000     0          
C9       C      0.296600000000     0.102300000000     0.796600000000     0          
H4       H      0.308700000000     0.125700000000     0.808700000000     0          
Zr1      Zr     0.575490000000     0.000000000000     0.000000000000     0          
O2       O      0.609340000000     0.000000000000     0.058450000000     0          
C3       C      0.668700000000     0.000000000000     0.116100000000     0          
H2       H      0.676000000000     0.000000000000     0.088000000000     0          
C4       C      0.698800000000     0.000000000000     0.146500000000     0          
H3       H      0.727000000000     0.000000000000     0.139300000000     0          
C7       C      0.734830000000     0.962000000000     0.234830000000     0          
C8       C      0.718200000000     0.926100000000     0.218200000000     0          
C9       C      0.703400000000     0.897700000000     0.203400000000     0          
H4       H      0.691300000000     0.874300000000     0.191300000000     0          
Zr1      Zr     0.500000000000     0.075490000000     0.000000000000     0          
O2       O      0.500000000000     0.109340000000     0.058450000000     0          
C3       C      0.500000000000     0.168700000000     0.116100000000     0          
H2       H      0.500000000000     0.176000000000     0.088000000000     0          
C4       C      0.500000000000     0.198800000000     0.146500000000     0          
H3       H      0.500000000000     0.227000000000     0.139300000000     0          
C7       C      0.538000000000     0.234830000000     0.234830000000     0          
C8       C      0.573900000000     0.218200000000     0.218200000000     0          
C9       C      0.602300000000     0.203400000000     0.203400000000     0          
H4       H      0.625700000000     0.191300000000     0.191300000000     0          
Zr1      Zr     0.424510000000     0.000000000000     0.000000000000     0          
O2       O      0.390660000000     0.000000000000     0.058450000000     0          
C3       C      0.331300000000     0.000000000000     0.116100000000     0          
H2       H      0.324000000000     0.000000000000     0.088000000000     0          
C4       C      0.301200000000     0.000000000000     0.146500000000     0          
H3       H      0.273000000000     0.000000000000     0.139300000000     0          
C7       C      0.265170000000     0.038000000000     0.234830000000     0          
C8       C      0.281800000000     0.073900000000     0.218200000000     0          
C9       C      0.296600000000     0.102300000000     0.203400000000     0          
H4       H      0.308700000000     0.125700000000     0.191300000000     0          
Zr1      Zr     0.500000000000     0.924510000000     0.000000000000     0          
O2       O      0.500000000000     0.890660000000     0.058450000000     0          
C3       C      0.500000000000     0.831300000000     0.116100000000     0          
H2       H      0.500000000000     0.824000000000     0.088000000000     0          
C4       C      0.500000000000     0.801200000000     0.146500000000     0          
H3       H      0.500000000000     0.773000000000     0.139300000000     0          
C7       C      0.462000000000     0.765170000000     0.234830000000     0          
C8       C      0.426100000000     0.781800000000     0.218200000000     0          
C9       C      0.397700000000     0.796600000000     0.203400000000     0          
H4       H      0.374300000000     0.808700000000     0.191300000000     0          
O2       O      0.609340000000     0.000000000000     0.941550000000     0          
C3       C      0.668700000000     0.000000000000     0.883900000000     0          
H2       H      0.676000000000     0.000000000000     0.912000000000     0          
C4       C      0.698800000000     0.000000000000     0.853500000000     0          
H3       H      0.727000000000     0.000000000000     0.860700000000     0          
C7       C      0.734830000000     0.038000000000     0.765170000000     0          
C8       C      0.718200000000     0.073900000000     0.781800000000     0          
C9       C      0.703400000000     0.102300000000     0.796600000000     0          
H4       H      0.691300000000     0.125700000000     0.808700000000     0          
O2       O      0.500000000000     0.109340000000     0.941550000000     0          
C3       C      0.500000000000     0.168700000000     0.883900000000     0          
H2       H      0.500000000000     0.176000000000     0.912000000000     0          
C4       C      0.500000000000     0.198800000000     0.853500000000     0          
H3       H      0.500000000000     0.227000000000     0.860700000000     0          
C7       C      0.462000000000     0.234830000000     0.765170000000     0          
C8       C      0.426100000000     0.218200000000     0.781800000000     0          
C9       C      0.397700000000     0.203400000000     0.796600000000     0          
H4       H      0.374300000000     0.191300000000     0.808700000000     0          
O2       O      0.390660000000     0.000000000000     0.941550000000     0          
C3       C      0.331300000000     0.000000000000     0.883900000000     0          
H2       H      0.324000000000     0.000000000000     0.912000000000     0          
C4       C      0.301200000000     0.000000000000     0.853500000000     0          
H3       H      0.273000000000     0.000000000000     0.860700000000     0          
C7       C      0.265170000000     0.962000000000     0.765170000000     0          
C8       C      0.281800000000     0.926100000000     0.781800000000     0          
C9       C      0.296600000000     0.897700000000     0.796600000000     0          
H4       H      0.308700000000     0.874300000000     0.808700000000     0          
O2       O      0.500000000000     0.890660000000     0.941550000000     0          
C3       C      0.500000000000     0.831300000000     0.883900000000     0          
H2       H      0.500000000000     0.824000000000     0.912000000000     0          
C4       C      0.500000000000     0.801200000000     0.853500000000     0          
H3       H      0.500000000000     0.773000000000     0.860700000000     0          
C7       C      0.538000000000     0.765170000000     0.765170000000     0          
C8       C      0.573900000000     0.781800000000     0.781800000000     0          
C9       C      0.602300000000     0.796600000000     0.796600000000     0          
H4       H      0.625700000000     0.808700000000     0.808700000000     0          
O2       O      0.558450000000     0.109340000000     0.000000000000     0          
C3       C      0.616100000000     0.168700000000     0.000000000000     0          
H2       H      0.588000000000     0.176000000000     0.000000000000     0          
C4       C      0.646500000000     0.198800000000     0.000000000000     0          
H3       H      0.639300000000     0.227000000000     0.000000000000     0          
C1       C      0.596160000000     0.096160000000     0.000000000000     0          
C2       C      0.628100000000     0.128100000000     0.000000000000     0          
C5       C      0.687000000000     0.187000000000     0.000000000000     0          
C6       C      0.721000000000     0.221000000000     0.000000000000     0          
C7       C      0.734830000000     0.234830000000     0.962000000000     0          
C8       C      0.718200000000     0.218200000000     0.926100000000     0          
C9       C      0.703400000000     0.203400000000     0.897700000000     0          
H4       H      0.691300000000     0.191300000000     0.874300000000     0          
O2       O      0.558450000000     0.890660000000     0.000000000000     0          
C3       C      0.616100000000     0.831300000000     0.000000000000     0          
H2       H      0.588000000000     0.824000000000     0.000000000000     0          
C4       C      0.646500000000     0.801200000000     0.000000000000     0          
H3       H      0.639300000000     0.773000000000     0.000000000000     0          
C1       C      0.596160000000     0.903840000000     0.000000000000     0          
C2       C      0.628100000000     0.871900000000     0.000000000000     0          
C5       C      0.687000000000     0.813000000000     0.000000000000     0          
C6       C      0.721000000000     0.779000000000     0.000000000000     0          
C7       C      0.734830000000     0.765170000000     0.038000000000     0          
C8       C      0.718200000000     0.781800000000     0.073900000000     0          
C9       C      0.703400000000     0.796600000000     0.102300000000     0          
H4       H      0.691300000000     0.808700000000     0.125700000000     0          
O2       O      0.609340000000     0.058450000000     0.000000000000     0          
C3       C      0.668700000000     0.116100000000     0.000000000000     0          
H2       H      0.676000000000     0.088000000000     0.000000000000     0          
C4       C      0.698800000000     0.146500000000     0.000000000000     0          
H3       H      0.727000000000     0.139300000000     0.000000000000     0          
C7       C      0.734830000000     0.234830000000     0.038000000000     0          
C8       C      0.718200000000     0.218200000000     0.073900000000     0          
C9       C      0.703400000000     0.203400000000     0.102300000000     0          
H4       H      0.691300000000     0.191300000000     0.125700000000     0          
O2       O      0.441550000000     0.109340000000     0.000000000000     0          
C3       C      0.383900000000     0.168700000000     0.000000000000     0          
H2       H      0.412000000000     0.176000000000     0.000000000000     0          
C4       C      0.353500000000     0.198800000000     0.000000000000     0          
H3       H      0.360700000000     0.227000000000     0.000000000000     0          
C1       C      0.403840000000     0.096160000000     0.000000000000     0          
C2       C      0.371900000000     0.128100000000     0.000000000000     0          
C5       C      0.313000000000     0.187000000000     0.000000000000     0          
C6       C      0.279000000000     0.221000000000     0.000000000000     0          
C7       C      0.265170000000     0.234830000000     0.038000000000     0          
C8       C      0.281800000000     0.218200000000     0.073900000000     0          
C9       C      0.296600000000     0.203400000000     0.102300000000     0          
H4       H      0.308700000000     0.191300000000     0.125700000000     0          
O2       O      0.390660000000     0.941550000000     0.000000000000     0          
C3       C      0.331300000000     0.883900000000     0.000000000000     0          
H2       H      0.324000000000     0.912000000000     0.000000000000     0          
C4       C      0.301200000000     0.853500000000     0.000000000000     0          
H3       H      0.273000000000     0.860700000000     0.000000000000     0          
C1       C      0.403840000000     0.903840000000     0.000000000000     0          
C2       C      0.371900000000     0.871900000000     0.000000000000     0          
C5       C      0.313000000000     0.813000000000     0.000000000000     0          
C6       C      0.279000000000     0.779000000000     0.000000000000     0          
C7       C      0.265170000000     0.765170000000     0.038000000000     0          
C8       C      0.281800000000     0.781800000000     0.073900000000     0          
C9       C      0.296600000000     0.796600000000     0.102300000000     0          
H4       H      0.308700000000     0.808700000000     0.125700000000     0          
O2       O      0.441550000000     0.890660000000     0.000000000000     0          
C3       C      0.383900000000     0.831300000000     0.000000000000     0          
H2       H      0.412000000000     0.824000000000     0.000000000000     0          
C4       C      0.353500000000     0.801200000000     0.000000000000     0          
H3       H      0.360700000000     0.773000000000     0.000000000000     0          
C7       C      0.265170000000     0.765170000000     0.962000000000     0          
C8       C      0.281800000000     0.781800000000     0.926100000000     0          
C9       C      0.296600000000     0.796600000000     0.897700000000     0          
H4       H      0.308700000000     0.808700000000     0.874300000000     0          
O2       O      0.609340000000     0.941550000000     0.000000000000     0          
C3       C      0.668700000000     0.883900000000     0.000000000000     0          
H2       H      0.676000000000     0.912000000000     0.000000000000     0          
C4       C      0.698800000000     0.853500000000     0.000000000000     0          
H3       H      0.727000000000     0.860700000000     0.000000000000     0          
C7       C      0.734830000000     0.765170000000     0.962000000000     0          
C8       C      0.718200000000     0.781800000000     0.926100000000     0          
C9       C      0.703400000000     0.796600000000     0.897700000000     0          
H4       H      0.691300000000     0.808700000000     0.874300000000     0          
O2       O      0.390660000000     0.058450000000     0.000000000000     0          
C3       C      0.331300000000     0.116100000000     0.000000000000     0          
H2       H      0.324000000000     0.088000000000     0.000000000000     0          
C4       C      0.301200000000     0.146500000000     0.000000000000     0          
H3       H      0.273000000000     0.139300000000     0.000000000000     0          
C7       C      0.265170000000     0.234830000000     0.962000000000     0          
C8       C      0.281800000000     0.218200000000     0.926100000000     0          
C9       C      0.296600000000     0.203400000000     0.897700000000     0          
H4       H      0.308700000000     0.191300000000     0.874300000000     0          
Zr1      Zr     0.000000000000     0.500000000000     0.075490000000     0          
O1       O      0.963380000000     0.463380000000     0.036620000000     0          
H1       H      0.948270000000     0.448270000000     0.051730000000     0          
O2       O      0.000000000000     0.558450000000     0.109340000000     0          
C3       C      0.000000000000     0.616100000000     0.168700000000     0          
H2       H      0.000000000000     0.588000000000     0.176000000000     0          
C4       C      0.000000000000     0.646500000000     0.198800000000     0          
H3       H      0.000000000000     0.639300000000     0.227000000000     0          
C1       C      0.000000000000     0.596160000000     0.096160000000     0          
C2       C      0.000000000000     0.628100000000     0.128100000000     0          
C5       C      0.000000000000     0.687000000000     0.187000000000     0          
C6       C      0.000000000000     0.721000000000     0.221000000000     0          
C7       C      0.962000000000     0.734830000000     0.234830000000     0          
C8       C      0.926100000000     0.718200000000     0.218200000000     0          
C9       C      0.897700000000     0.703400000000     0.203400000000     0          
H4       H      0.874300000000     0.691300000000     0.191300000000     0          
O1       O      0.036620000000     0.463380000000     0.036620000000     0          
H1       H      0.051730000000     0.448270000000     0.051730000000     0          
O2       O      0.941550000000     0.500000000000     0.109340000000     0          
C3       C      0.883900000000     0.500000000000     0.168700000000     0          
H2       H      0.912000000000     0.500000000000     0.176000000000     0          
C4       C      0.853500000000     0.500000000000     0.198800000000     0          
H3       H      0.860700000000     0.500000000000     0.227000000000     0          
C1       C      0.903840000000     0.500000000000     0.096160000000     0          
C2       C      0.871900000000     0.500000000000     0.128100000000     0          
C5       C      0.813000000000     0.500000000000     0.187000000000     0          
C6       C      0.779000000000     0.500000000000     0.221000000000     0          
C7       C      0.765170000000     0.462000000000     0.234830000000     0          
C8       C      0.781800000000     0.426100000000     0.218200000000     0          
C9       C      0.796600000000     0.397700000000     0.203400000000     0          
H4       H      0.808700000000     0.374300000000     0.191300000000     0          
O1       O      0.036620000000     0.536620000000     0.036620000000     0          
H1       H      0.051730000000     0.551730000000     0.051730000000     0          
O2       O      0.000000000000     0.441550000000     0.109340000000     0          
C3       C      0.000000000000     0.383900000000     0.168700000000     0          
H2       H      0.000000000000     0.412000000000     0.176000000000     0          
C4       C      0.000000000000     0.353500000000     0.198800000000     0          
H3       H      0.000000000000     0.360700000000     0.227000000000     0          
C1       C      0.000000000000     0.403840000000     0.096160000000     0          
C2       C      0.000000000000     0.371900000000     0.128100000000     0          
C5       C      0.000000000000     0.313000000000     0.187000000000     0          
C6       C      0.000000000000     0.279000000000     0.221000000000     0          
C7       C      0.038000000000     0.265170000000     0.234830000000     0          
C8       C      0.073900000000     0.281800000000     0.218200000000     0          
C9       C      0.102300000000     0.296600000000     0.203400000000     0          
H4       H      0.125700000000     0.308700000000     0.191300000000     0          
O1       O      0.963380000000     0.536620000000     0.036620000000     0          
H1       H      0.948270000000     0.551730000000     0.051730000000     0          
O2       O      0.058450000000     0.500000000000     0.109340000000     0          
C3       C      0.116100000000     0.500000000000     0.168700000000     0          
H2       H      0.088000000000     0.500000000000     0.176000000000     0          
C4       C      0.146500000000     0.500000000000     0.198800000000     0          
H3       H      0.139300000000     0.500000000000     0.227000000000     0          
C1       C      0.096160000000     0.500000000000     0.096160000000     0          
C2       C      0.128100000000     0.500000000000     0.128100000000     0          
C5       C      0.187000000000     0.500000000000     0.187000000000     0          
C6       C      0.221000000000     0.500000000000     0.221000000000     0          
C7       C      0.234830000000     0.538000000000     0.234830000000     0          
C8       C      0.218200000000     0.573900000000     0.218200000000     0          
C9       C      0.203400000000     0.602300000000     0.203400000000     0          
H4       H      0.191300000000     0.625700000000     0.191300000000     0          
Zr1      Zr     0.000000000000     0.500000000000     0.924510000000     0          
O1       O      0.963380000000     0.536620000000     0.963380000000     0          
H1       H      0.948270000000     0.551730000000     0.948270000000     0          
O2       O      0.000000000000     0.441550000000     0.890660000000     0          
C3       C      0.000000000000     0.383900000000     0.831300000000     0          
H2       H      0.000000000000     0.412000000000     0.824000000000     0          
C4       C      0.000000000000     0.353500000000     0.801200000000     0          
H3       H      0.000000000000     0.360700000000     0.773000000000     0          
C1       C      0.000000000000     0.403840000000     0.903840000000     0          
C2       C      0.000000000000     0.371900000000     0.871900000000     0          
C5       C      0.000000000000     0.313000000000     0.813000000000     0          
C6       C      0.000000000000     0.279000000000     0.779000000000     0          
C7       C      0.962000000000     0.265170000000     0.765170000000     0          
C8       C      0.926100000000     0.281800000000     0.781800000000     0          
C9       C      0.897700000000     0.296600000000     0.796600000000     0          
H4       H      0.874300000000     0.308700000000     0.808700000000     0          
O1       O      0.963380000000     0.463380000000     0.963380000000     0          
H1       H      0.948270000000     0.448270000000     0.948270000000     0          
O2       O      0.058450000000     0.500000000000     0.890660000000     0          
C3       C      0.116100000000     0.500000000000     0.831300000000     0          
H2       H      0.088000000000     0.500000000000     0.824000000000     0          
C4       C      0.146500000000     0.500000000000     0.801200000000     0          
H3       H      0.139300000000     0.500000000000     0.773000000000     0          
C1       C      0.096160000000     0.500000000000     0.903840000000     0          
C2       C      0.128100000000     0.500000000000     0.871900000000     0          
C5       C      0.187000000000     0.500000000000     0.813000000000     0          
C6       C      0.221000000000     0.500000000000     0.779000000000     0          
C7       C      0.234830000000     0.462000000000     0.765170000000     0          
C8       C      0.218200000000     0.426100000000     0.781800000000     0          
C9       C      0.203400000000     0.397700000000     0.796600000000     0          
H4       H      0.191300000000     0.374300000000     0.808700000000     0          
O1       O      0.036620000000     0.463380000000     0.963380000000     0          
H1       H      0.051730000000     0.448270000000     0.948270000000     0          
O2       O      0.000000000000     0.558450000000     0.890660000000     0          
C3       C      0.000000000000     0.616100000000     0.831300000000     0          
H2       H      0.000000000000     0.588000000000     0.824000000000     0          
C4       C      0.000000000000     0.646500000000     0.801200000000     0          
H3       H      0.000000000000     0.639300000000     0.773000000000     0          
C1       C      0.000000000000     0.596160000000     0.903840000000     0          
C2       C      0.000000000000     0.628100000000     0.871900000000     0          
C5       C      0.000000000000     0.687000000000     0.813000000000     0          
C6       C      0.000000000000     0.721000000000     0.779000000000     0          
C7       C      0.038000000000     0.734830000000     0.765170000000     0          
C8       C      0.073900000000     0.718200000000     0.781800000000     0          
C9       C      0.102300000000     0.703400000000     0.796600000000     0          
H4       H      0.125700000000     0.691300000000     0.808700000000     0          
O1       O      0.036620000000     0.536620000000     0.963380000000     0          
H1       H      0.051730000000     0.551730000000     0.948270000000     0          
O2       O      0.941550000000     0.500000000000     0.890660000000     0          
C3       C      0.883900000000     0.500000000000     0.831300000000     0          
H2       H      0.912000000000     0.500000000000     0.824000000000     0          
C4       C      0.853500000000     0.500000000000     0.801200000000     0          
H3       H      0.860700000000     0.500000000000     0.773000000000     0          
C1       C      0.903840000000     0.500000000000     0.903840000000     0          
C2       C      0.871900000000     0.500000000000     0.871900000000     0          
C5       C      0.813000000000     0.500000000000     0.813000000000     0          
C6       C      0.779000000000     0.500000000000     0.779000000000     0          
C7       C      0.765170000000     0.538000000000     0.765170000000     0          
C8       C      0.781800000000     0.573900000000     0.781800000000     0          
C9       C      0.796600000000     0.602300000000     0.796600000000     0          
H4       H      0.808700000000     0.625700000000     0.808700000000     0          
Zr1      Zr     0.075490000000     0.500000000000     0.000000000000     0          
O2       O      0.109340000000     0.500000000000     0.058450000000     0          
C3       C      0.168700000000     0.500000000000     0.116100000000     0          
H2       H      0.176000000000     0.500000000000     0.088000000000     0          
C4       C      0.198800000000     0.500000000000     0.146500000000     0          
H3       H      0.227000000000     0.500000000000     0.139300000000     0          
C7       C      0.234830000000     0.462000000000     0.234830000000     0          
C8       C      0.218200000000     0.426100000000     0.218200000000     0          
C9       C      0.203400000000     0.397700000000     0.203400000000     0          
H4       H      0.191300000000     0.374300000000     0.191300000000     0          
Zr1      Zr     0.000000000000     0.575490000000     0.000000000000     0          
O2       O      0.000000000000     0.609340000000     0.058450000000     0          
C3       C      0.000000000000     0.668700000000     0.116100000000     0          
H2       H      0.000000000000     0.676000000000     0.088000000000     0          
C4       C      0.000000000000     0.698800000000     0.146500000000     0          
H3       H      0.000000000000     0.727000000000     0.139300000000     0          
C7       C      0.038000000000     0.734830000000     0.234830000000     0          
C8       C      0.073900000000     0.718200000000     0.218200000000     0          
C9       C      0.102300000000     0.703400000000     0.203400000000     0          
H4       H      0.125700000000     0.691300000000     0.191300000000     0          
Zr1      Zr     0.924510000000     0.500000000000     0.000000000000     0          
O2       O      0.890660000000     0.500000000000     0.058450000000     0          
C3       C      0.831300000000     0.500000000000     0.116100000000     0          
H2       H      0.824000000000     0.500000000000     0.088000000000     0          
C4       C      0.801200000000     0.500000000000     0.146500000000     0          
H3       H      0.773000000000     0.500000000000     0.139300000000     0          
C7       C      0.765170000000     0.538000000000     0.234830000000     0          
C8       C      0.781800000000     0.573900000000     0.218200000000     0          
C9       C      0.796600000000     0.602300000000     0.203400000000     0          
H4       H      0.808700000000     0.625700000000     0.191300000000     0          
Zr1      Zr     0.000000000000     0.424510000000     0.000000000000     0          
O2       O      0.000000000000     0.390660000000     0.058450000000     0          
C3       C      0.000000000000     0.331300000000     0.116100000000     0          
H2       H      0.000000000000     0.324000000000     0.088000000000     0          
C4       C      0.000000000000     0.301200000000     0.146500000000     0          
H3       H      0.000000000000     0.273000000000     0.139300000000     0          
C7       C      0.962000000000     0.265170000000     0.234830000000     0          
C8       C      0.926100000000     0.281800000000     0.218200000000     0          
C9       C      0.897700000000     0.296600000000     0.203400000000     0          
H4       H      0.874300000000     0.308700000000     0.191300000000     0          
O2       O      0.109340000000     0.500000000000     0.941550000000     0          
C3       C      0.168700000000     0.500000000000     0.883900000000     0          
H2       H      0.176000000000     0.500000000000     0.912000000000     0          
C4       C      0.198800000000     0.500000000000     0.853500000000     0          
H3       H      0.227000000000     0.500000000000     0.860700000000     0          
C7       C      0.234830000000     0.538000000000     0.765170000000     0          
C8       C      0.218200000000     0.573900000000     0.781800000000     0          
C9       C      0.203400000000     0.602300000000     0.796600000000     0          
H4       H      0.191300000000     0.625700000000     0.808700000000     0          
O2       O      0.000000000000     0.609340000000     0.941550000000     0          
C3       C      0.000000000000     0.668700000000     0.883900000000     0          
H2       H      0.000000000000     0.676000000000     0.912000000000     0          
C4       C      0.000000000000     0.698800000000     0.853500000000     0          
H3       H      0.000000000000     0.727000000000     0.860700000000     0          
C7       C      0.962000000000     0.734830000000     0.765170000000     0          
C8       C      0.926100000000     0.718200000000     0.781800000000     0          
C9       C      0.897700000000     0.703400000000     0.796600000000     0          
H4       H      0.874300000000     0.691300000000     0.808700000000     0          
O2       O      0.890660000000     0.500000000000     0.941550000000     0          
C3       C      0.831300000000     0.500000000000     0.883900000000     0          
H2       H      0.824000000000     0.500000000000     0.912000000000     0          
C4       C      0.801200000000     0.500000000000     0.853500000000     0          
H3       H      0.773000000000     0.500000000000     0.860700000000     0          
C7       C      0.765170000000     0.462000000000     0.765170000000     0          
C8       C      0.781800000000     0.426100000000     0.781800000000     0          
C9       C      0.796600000000     0.397700000000     0.796600000000     0          
H4       H      0.808700000000     0.374300000000     0.808700000000     0          
O2       O      0.000000000000     0.390660000000     0.941550000000     0          
C3       C      0.000000000000     0.331300000000     0.883900000000     0          
H2       H      0.000000000000     0.324000000000     0.912000000000     0          
C4       C      0.000000000000     0.301200000000     0.853500000000     0          
H3       H      0.000000000000     0.273000000000     0.860700000000     0          
C7       C      0.038000000000     0.265170000000     0.765170000000     0          
C8       C      0.073900000000     0.281800000000     0.781800000000     0          
C9       C      0.102300000000     0.296600000000     0.796600000000     0          
H4       H      0.125700000000     0.308700000000     0.808700000000     0          
O2       O      0.058450000000     0.609340000000     0.000000000000     0          
C3       C      0.116100000000     0.668700000000     0.000000000000     0          
H2       H      0.088000000000     0.676000000000     0.000000000000     0          
C4       C      0.146500000000     0.698800000000     0.000000000000     0          
H3       H      0.139300000000     0.727000000000     0.000000000000     0          
C1       C      0.096160000000     0.596160000000     0.000000000000     0          
C2       C      0.128100000000     0.628100000000     0.000000000000     0          
C5       C      0.187000000000     0.687000000000     0.000000000000     0          
C6       C      0.221000000000     0.721000000000     0.000000000000     0          
C7       C      0.234830000000     0.734830000000     0.962000000000     0          
C8       C      0.218200000000     0.718200000000     0.926100000000     0          
C9       C      0.203400000000     0.703400000000     0.897700000000     0          
H4       H      0.191300000000     0.691300000000     0.874300000000     0          
O2       O      0.058450000000     0.390660000000     0.000000000000     0          
C3       C      0.116100000000     0.331300000000     0.000000000000     0          
H2       H      0.088000000000     0.324000000000     0.000000000000     0          
C4       C      0.146500000000     0.301200000000     0.000000000000     0          
H3       H      0.139300000000     0.273000000000     0.000000000000     0          
C1       C      0.096160000000     0.403840000000     0.000000000000     0          
C2       C      0.128100000000     0.371900000000     0.000000000000     0          
C5       C      0.187000000000     0.313000000000     0.000000000000     0          
C6       C      0.221000000000     0.279000000000     0.000000000000     0          
C7       C      0.234830000000     0.265170000000     0.038000000000     0          
C8       C      0.218200000000     0.281800000000     0.073900000000     0          
C9       C      0.203400000000     0.296600000000     0.102300000000     0          
H4       H      0.191300000000     0.308700000000     0.125700000000     0          
O2       O      0.109340000000     0.558450000000     0.000000000000     0          
C3       C      0.168700000000     0.616100000000     0.000000000000     0          
H2       H      0.176000000000     0.588000000000     0.000000000000     0          
C4       C      0.198800000000     0.646500000000     0.000000000000     0          
H3       H      0.227000000000     0.639300000000     0.000000000000     0          
C7       C      0.234830000000     0.734830000000     0.038000000000     0          
C8       C      0.218200000000     0.718200000000     0.073900000000     0          
C9       C      0.203400000000     0.703400000000     0.102300000000     0          
H4       H      0.191300000000     0.691300000000     0.125700000000     0          
O2       O      0.941550000000     0.609340000000     0.000000000000     0          
C3       C      0.883900000000     0.668700000000     0.000000000000     0          
H2       H      0.912000000000     0.676000000000     0.000000000000     0          
C4       C      0.853500000000     0.698800000000     0.000000000000     0          
H3       H      0.860700000000     0.727000000000     0.000000000000     0          
C1       C      0.903840000000     0.596160000000     0.000000000000     0          
C2       C      0.871900000000     0.628100000000     0.000000000000     0          
C5       C      0.813000000000     0.687000000000     0.000000000000     0          
C6       C      0.779000000000     0.721000000000     0.000000000000     0          
C7       C      0.765170000000     0.734830000000     0.038000000000     0          
C8       C      0.781800000000     0.718200000000     0.073900000000     0          
C9       C      0.796600000000     0.703400000000     0.102300000000     0          
H4       H      0.808700000000     0.691300000000     0.125700000000     0          
O2       O      0.890660000000     0.441550000000     0.000000000000     0          
C3       C      0.831300000000     0.383900000000     0.000000000000     0          
H2       H      0.824000000000     0.412000000000     0.000000000000     0          
C4       C      0.801200000000     0.353500000000     0.000000000000     0          
H3       H      0.773000000000     0.360700000000     0.000000000000     0          
C1       C      0.903840000000     0.403840000000     0.000000000000     0          
C2       C      0.871900000000     0.371900000000     0.000000000000     0          
C5       C      0.813000000000     0.313000000000     0.000000000000     0          
C6       C      0.779000000000     0.279000000000     0.000000000000     0          
C7       C      0.765170000000     0.265170000000     0.038000000000     0          
C8       C      0.781800000000     0.281800000000     0.073900000000     0          
C9       C      0.796600000000     0.296600000000     0.102300000000     0          
H4       H      0.808700000000     0.308700000000     0.125700000000     0          
O2       O      0.941550000000     0.390660000000     0.000000000000     0          
C3       C      0.883900000000     0.331300000000     0.000000000000     0          
H2       H      0.912000000000     0.324000000000     0.000000000000     0          
C4       C      0.853500000000     0.301200000000     0.000000000000     0          
H3       H      0.860700000000     0.273000000000     0.000000000000     0          
C7       C      0.765170000000     0.265170000000     0.962000000000     0          
C8       C      0.781800000000     0.281800000000     0.926100000000     0          
C9       C      0.796600000000     0.296600000000     0.897700000000     0          
H4       H      0.808700000000     0.308700000000     0.874300000000     0          
O2       O      0.109340000000     0.441550000000     0.000000000000     0          
C3       C      0.168700000000     0.383900000000     0.000000000000     0          
H2       H      0.176000000000     0.412000000000     0.000000000000     0          
C4       C      0.198800000000     0.353500000000     0.000000000000     0          
H3       H      0.227000000000     0.360700000000     0.000000000000     0          
C7       C      0.234830000000     0.265170000000     0.962000000000     0          
C8       C      0.218200000000     0.281800000000     0.926100000000     0          
C9       C      0.203400000000     0.296600000000     0.897700000000     0          
H4       H      0.191300000000     0.308700000000     0.874300000000     0          
O2       O      0.890660000000     0.558450000000     0.000000000000     0          
C3       C      0.831300000000     0.616100000000     0.000000000000     0          
H2       H      0.824000000000     0.588000000000     0.000000000000     0          
C4       C      0.801200000000     0.646500000000     0.000000000000     0          
H3       H      0.773000000000     0.639300000000     0.000000000000     0          
C7       C      0.765170000000     0.734830000000     0.962000000000     0          
C8       C      0.781800000000     0.718200000000     0.926100000000     0          
C9       C      0.796600000000     0.703400000000     0.897700000000     0          
H4       H      0.808700000000     0.691300000000     0.874300000000     0          
Zr1      Zr     0.000000000000     0.000000000000     0.575490000000     0          
O1       O      0.963380000000     0.963380000000     0.536620000000     0          
H1       H      0.948270000000     0.948270000000     0.551730000000     0          
O2       O      0.000000000000     0.058450000000     0.609340000000     0          
C3       C      0.000000000000     0.116100000000     0.668700000000     0          
H2       H      0.000000000000     0.088000000000     0.676000000000     0          
C4       C      0.000000000000     0.146500000000     0.698800000000     0          
H3       H      0.000000000000     0.139300000000     0.727000000000     0          
C1       C      0.000000000000     0.096160000000     0.596160000000     0          
C2       C      0.000000000000     0.128100000000     0.628100000000     0          
C5       C      0.000000000000     0.187000000000     0.687000000000     0          
C6       C      0.000000000000     0.221000000000     0.721000000000     0          
C7       C      0.962000000000     0.234830000000     0.734830000000     0          
C8       C      0.926100000000     0.218200000000     0.718200000000     0          
C9       C      0.897700000000     0.203400000000     0.703400000000     0          
H4       H      0.874300000000     0.191300000000     0.691300000000     0          
O1       O      0.036620000000     0.963380000000     0.536620000000     0          
H1       H      0.051730000000     0.948270000000     0.551730000000     0          
O2       O      0.941550000000     0.000000000000     0.609340000000     0          
C3       C      0.883900000000     0.000000000000     0.668700000000     0          
H2       H      0.912000000000     0.000000000000     0.676000000000     0          
C4       C      0.853500000000     0.000000000000     0.698800000000     0          
H3       H      0.860700000000     0.000000000000     0.727000000000     0          
C1       C      0.903840000000     0.000000000000     0.596160000000     0          
C2       C      0.871900000000     0.000000000000     0.628100000000     0          
C5       C      0.813000000000     0.000000000000     0.687000000000     0          
C6       C      0.779000000000     0.000000000000     0.721000000000     0          
C7       C      0.765170000000     0.962000000000     0.734830000000     0          
C8       C      0.781800000000     0.926100000000     0.718200000000     0          
C9       C      0.796600000000     0.897700000000     0.703400000000     0          
H4       H      0.808700000000     0.874300000000     0.691300000000     0          
O1       O      0.036620000000     0.036620000000     0.536620000000     0          
H1       H      0.051730000000     0.051730000000     0.551730000000     0          
O2       O      0.000000000000     0.941550000000     0.609340000000     0          
C3       C      0.000000000000     0.883900000000     0.668700000000     0          
H2       H      0.000000000000     0.912000000000     0.676000000000     0          
C4       C      0.000000000000     0.853500000000     0.698800000000     0          
H3       H      0.000000000000     0.860700000000     0.727000000000     0          
C1       C      0.000000000000     0.903840000000     0.596160000000     0          
C2       C      0.000000000000     0.871900000000     0.628100000000     0          
C5       C      0.000000000000     0.813000000000     0.687000000000     0          
C6       C      0.000000000000     0.779000000000     0.721000000000     0          
C7       C      0.038000000000     0.765170000000     0.734830000000     0          
C8       C      0.073900000000     0.781800000000     0.718200000000     0          
C9       C      0.102300000000     0.796600000000     0.703400000000     0          
H4       H      0.125700000000     0.808700000000     0.691300000000     0          
O1       O      0.963380000000     0.036620000000     0.536620000000     0          
H1       H      0.948270000000     0.051730000000     0.551730000000     0          
O2       O      0.058450000000     0.000000000000     0.609340000000     0          
C3       C      0.116100000000     0.000000000000     0.668700000000     0          
H2       H      0.088000000000     0.000000000000     0.676000000000     0          
C4       C      0.146500000000     0.000000000000     0.698800000000     0          
H3       H      0.139300000000     0.000000000000     0.727000000000     0          
C1       C      0.096160000000     0.000000000000     0.596160000000     0          
C2       C      0.128100000000     0.000000000000     0.628100000000     0          
C5       C      0.187000000000     0.000000000000     0.687000000000     0          
C6       C      0.221000000000     0.000000000000     0.721000000000     0          
C7       C      0.234830000000     0.038000000000     0.734830000000     0          
C8       C      0.218200000000     0.073900000000     0.718200000000     0          
C9       C      0.203400000000     0.102300000000     0.703400000000     0          
H4       H      0.191300000000     0.125700000000     0.691300000000     0          
Zr1      Zr     0.000000000000     0.000000000000     0.424510000000     0          
O1       O      0.963380000000     0.036620000000     0.463380000000     0          
H1       H      0.948270000000     0.051730000000     0.448270000000     0          
O2       O      0.000000000000     0.941550000000     0.390660000000     0          
C3       C      0.000000000000     0.883900000000     0.331300000000     0          
H2       H      0.000000000000     0.912000000000     0.324000000000     0          
C4       C      0.000000000000     0.853500000000     0.301200000000     0          
H3       H      0.000000000000     0.860700000000     0.273000000000     0          
C1       C      0.000000000000     0.903840000000     0.403840000000     0          
C2       C      0.000000000000     0.871900000000     0.371900000000     0          
C5       C      0.000000000000     0.813000000000     0.313000000000     0          
C6       C      0.000000000000     0.779000000000     0.279000000000     0          
C7       C      0.962000000000     0.765170000000     0.265170000000     0          
C8       C      0.926100000000     0.781800000000     0.281800000000     0          
C9       C      0.897700000000     0.796600000000     0.296600000000     0          
H4       H      0.874300000000     0.808700000000     0.308700000000     0          
O1       O      0.963380000000     0.963380000000     0.463380000000     0          
H1       H      0.948270000000     0.948270000000     0.448270000000     0          
O2       O      0.058450000000     0.000000000000     0.390660000000     0          
C3       C      0.116100000000     0.000000000000     0.331300000000     0          
H2       H      0.088000000000     0.000000000000     0.324000000000     0          
C4       C      0.146500000000     0.000000000000     0.301200000000     0          
H3       H      0.139300000000     0.000000000000     0.273000000000     0          
C1       C      0.096160000000     0.000000000000     0.403840000000     0          
C2       C      0.128100000000     0.000000000000     0.371900000000     0          
C5       C      0.187000000000     0.000000000000     0.313000000000     0          
C6       C      0.221000000000     0.000000000000     0.279000000000     0          
C7       C      0.234830000000     0.962000000000     0.265170000000     0          
C8       C      0.218200000000     0.926100000000     0.281800000000     0          
C9       C      0.203400000000     0.897700000000     0.296600000000     0          
H4       H      0.191300000000     0.874300000000     0.308700000000     0          
O1       O      0.036620000000     0.963380000000     0.463380000000     0          
H1       H      0.051730000000     0.948270000000     0.448270000000     0          
O2       O      0.000000000000     0.058450000000     0.390660000000     0          
C3       C      0.000000000000     0.116100000000     0.331300000000     0          
H2       H      0.000000000000     0.088000000000     0.324000000000     0          
C4       C      0.000000000000     0.146500000000     0.301200000000     0          
H3       H      0.000000000000     0.139300000000     0.273000000000     0          
C1       C      0.000000000000     0.096160000000     0.403840000000     0          
C2       C      0.000000000000     0.128100000000     0.371900000000     0          
C5       C      0.000000000000     0.187000000000     0.313000000000     0          
C6       C      0.000000000000     0.221000000000     0.279000000000     0          
C7       C      0.038000000000     0.234830000000     0.265170000000     0          
C8       C      0.073900000000     0.218200000000     0.281800000000     0          
C9       C      0.102300000000     0.203400000000     0.296600000000     0          
H4       H      0.125700000000     0.191300000000     0.308700000000     0          
O1       O      0.036620000000     0.036620000000     0.463380000000     0          
H1       H      0.051730000000     0.051730000000     0.448270000000     0          
O2       O      0.941550000000     0.000000000000     0.390660000000     0          
C3       C      0.883900000000     0.000000000000     0.331300000000     0          
H2       H      0.912000000000     0.000000000000     0.324000000000     0          
C4       C      0.853500000000     0.000000000000     0.301200000000     0          
H3       H      0.860700000000     0.000000000000     0.273000000000     0          
C1       C      0.903840000000     0.000000000000     0.403840000000     0          
C2       C      0.871900000000     0.000000000000     0.371900000000     0          
C5       C      0.813000000000     0.000000000000     0.313000000000     0          
C6       C      0.779000000000     0.000000000000     0.279000000000     0          
C7       C      0.765170000000     0.038000000000     0.265170000000     0          
C8       C      0.781800000000     0.073900000000     0.281800000000     0          
C9       C      0.796600000000     0.102300000000     0.296600000000     0          
H4       H      0.808700000000     0.125700000000     0.308700000000     0          
Zr1      Zr     0.075490000000     0.000000000000     0.500000000000     0          
O2       O      0.109340000000     0.000000000000     0.558450000000     0          
C3       C      0.168700000000     0.000000000000     0.616100000000     0          
H2       H      0.176000000000     0.000000000000     0.588000000000     0          
C4       C      0.198800000000     0.000000000000     0.646500000000     0          
H3       H      0.227000000000     0.000000000000     0.639300000000     0          
C7       C      0.234830000000     0.962000000000     0.734830000000     0          
C8       C      0.218200000000     0.926100000000     0.718200000000     0          
C9       C      0.203400000000     0.897700000000     0.703400000000     0          
H4       H      0.191300000000     0.874300000000     0.691300000000     0          
Zr1      Zr     0.000000000000     0.075490000000     0.500000000000     0          
O2       O      0.000000000000     0.109340000000     0.558450000000     0          
C3       C      0.000000000000     0.168700000000     0.616100000000     0          
H2       H      0.000000000000     0.176000000000     0.588000000000     0          
C4       C      0.000000000000     0.198800000000     0.646500000000     0          
H3       H      0.000000000000     0.227000000000     0.639300000000     0          
C7       C      0.038000000000     0.234830000000     0.734830000000     0          
C8       C      0.073900000000     0.218200000000     0.718200000000     0          
C9       C      0.102300000000     0.203400000000     0.703400000000     0          
H4       H      0.125700000000     0.191300000000     0.691300000000     0          
Zr1      Zr     0.924510000000     0.000000000000     0.500000000000     0          
O2       O      0.890660000000     0.000000000000     0.558450000000     0          
C3       C      0.831300000000     0.000000000000     0.616100000000     0          
H2       H      0.824000000000     0.000000000000     0.588000000000     0          
C4       C      0.801200000000     0.000000000000     0.646500000000     0          
H3       H      0.773000000000     0.000000000000     0.639300000000     0          
C7       C      0.765170000000     0.038000000000     0.734830000000     0          
C8       C      0.781800000000     0.073900000000     0.718200000000     0          
C9       C      0.796600000000     0.102300000000     0.703400000000     0          
H4       H      0.808700000000     0.125700000000     0.691300000000     0          
Zr1      Zr     0.000000000000     0.924510000000     0.500000000000     0          
O2       O      0.000000000000     0.890660000000     0.558450000000     0          
C3       C      0.000000000000     0.831300000000     0.616100000000     0          
H2       H      0.000000000000     0.824000000000     0.588000000000     0          
C4       C      0.000000000000     0.801200000000     0.646500000000     0          
H3       H      0.000000000000     0.773000000000     0.639300000000     0          
C7       C      0.962000000000     0.765170000000     0.734830000000     0          
C8       C      0.926100000000     0.781800000000     0.718200000000     0          
C9       C      0.897700000000     0.796600000000     0.703400000000     0          
H4       H      0.874300000000     0.808700000000     0.691300000000     0          
O2       O      0.109340000000     0.000000000000     0.441550000000     0          
C3       C      0.168700000000     0.000000000000     0.383900000000     0          
H2       H      0.176000000000     0.000000000000     0.412000000000     0          
C4       C      0.198800000000     0.000000000000     0.353500000000     0          
H3       H      0.227000000000     0.000000000000     0.360700000000     0          
C7       C      0.234830000000     0.038000000000     0.265170000000     0          
C8       C      0.218200000000     0.073900000000     0.281800000000     0          
C9       C      0.203400000000     0.102300000000     0.296600000000     0          
H4       H      0.191300000000     0.125700000000     0.308700000000     0          
O2       O      0.000000000000     0.109340000000     0.441550000000     0          
C3       C      0.000000000000     0.168700000000     0.383900000000     0          
H2       H      0.000000000000     0.176000000000     0.412000000000     0          
C4       C      0.000000000000     0.198800000000     0.353500000000     0          
H3       H      0.000000000000     0.227000000000     0.360700000000     0          
C7       C      0.962000000000     0.234830000000     0.265170000000     0          
C8       C      0.926100000000     0.218200000000     0.281800000000     0          
C9       C      0.897700000000     0.203400000000     0.296600000000     0          
H4       H      0.874300000000     0.191300000000     0.308700000000     0          
O2       O      0.890660000000     0.000000000000     0.441550000000     0          
C3       C      0.831300000000     0.000000000000     0.383900000000     0          
H2       H      0.824000000000     0.000000000000     0.412000000000     0          
C4       C      0.801200000000     0.000000000000     0.353500000000     0          
H3       H      0.773000000000     0.000000000000     0.360700000000     0          
C7       C      0.765170000000     0.962000000000     0.265170000000     0          
C8       C      0.781800000000     0.926100000000     0.281800000000     0          
C9       C      0.796600000000     0.897700000000     0.296600000000     0          
H4       H      0.808700000000     0.874300000000     0.308700000000     0          
O2       O      0.000000000000     0.890660000000     0.441550000000     0          
C3       C      0.000000000000     0.831300000000     0.383900000000     0          
H2       H      0.000000000000     0.824000000000     0.412000000000     0          
C4       C      0.000000000000     0.801200000000     0.353500000000     0          
H3       H      0.000000000000     0.773000000000     0.360700000000     0          
C7       C      0.038000000000     0.765170000000     0.265170000000     0          
C8       C      0.073900000000     0.781800000000     0.281800000000     0          
C9       C      0.102300000000     0.796600000000     0.296600000000     0          
H4       H      0.125700000000     0.808700000000     0.308700000000     0          
O2       O      0.058450000000     0.109340000000     0.500000000000     0          
C3       C      0.116100000000     0.168700000000     0.500000000000     0          
H2       H      0.088000000000     0.176000000000     0.500000000000     0          
C4       C      0.146500000000     0.198800000000     0.500000000000     0          
H3       H      0.139300000000     0.227000000000     0.500000000000     0          
C1       C      0.096160000000     0.096160000000     0.500000000000     0          
C2       C      0.128100000000     0.128100000000     0.500000000000     0          
C5       C      0.187000000000     0.187000000000     0.500000000000     0          
C6       C      0.221000000000     0.221000000000     0.500000000000     0          
C7       C      0.234830000000     0.234830000000     0.462000000000     0          
C8       C      0.218200000000     0.218200000000     0.426100000000     0          
C9       C      0.203400000000     0.203400000000     0.397700000000     0          
H4       H      0.191300000000     0.191300000000     0.374300000000     0          
O2       O      0.058450000000     0.890660000000     0.500000000000     0          
C3       C      0.116100000000     0.831300000000     0.500000000000     0          
H2       H      0.088000000000     0.824000000000     0.500000000000     0          
C4       C      0.146500000000     0.801200000000     0.500000000000     0          
H3       H      0.139300000000     0.773000000000     0.500000000000     0          
C1       C      0.096160000000     0.903840000000     0.500000000000     0          
C2       C      0.128100000000     0.871900000000     0.500000000000     0          
C5       C      0.187000000000     0.813000000000     0.500000000000     0          
C6       C      0.221000000000     0.779000000000     0.500000000000     0          
C7       C      0.234830000000     0.765170000000     0.538000000000     0          
C8       C      0.218200000000     0.781800000000     0.573900000000     0          
C9       C      0.203400000000     0.796600000000     0.602300000000     0          
H4       H      0.191300000000     0.808700000000     0.625700000000     0          
O2       O      0.109340000000     0.058450000000     0.500000000000     0          
C3       C      0.168700000000     0.116100000000     0.500000000000     0          
H2       H      0.176000000000     0.088000000000     0.500000000000     0          
C4       C      0.198800000000     0.146500000000     0.500000000000     0          
H3       H      0.227000000000     0.139300000000     0.500000000000     0          
C7       C      0.234830000000     0.234830000000     0.538000000000     0          
C8       C      0.218200000000     0.218200000000     0.573900000000     0          
C9       C      0.203400000000     0.203400000000     0.602300000000     0          
H4       H      0.191300000000     0.191300000000     0.625700000000     0          
O2       O      0.941550000000     0.109340000000     0.500000000000     0          
C3       C      0.883900000000     0.168700000000     0.500000000000     0          
H2       H      0.912000000000     0.176000000000     0.500000000000     0          
C4       C      0.853500000000     0.198800000000     0.500000000000     0          
H3       H      0.860700000000     0.227000000000     0.500000000000     0          
C1       C      0.903840000000     0.096160000000     0.500000000000     0          
C2       C      0.871900000000     0.128100000000     0.500000000000     0          
C5       C      0.813000000000     0.187000000000     0.500000000000     0          
C6       C      0.779000000000     0.221000000000     0.500000000000     0          
C7       C      0.765170000000     0.234830000000     0.538000000000     0          
C8       C      0.781800000000     0.218200000000     0.573900000000     0          
C9       C      0.796600000000     0.203400000000     0.602300000000     0          
H4       H      0.808700000000     0.191300000000     0.625700000000     0          
O2       O      0.890660000000     0.941550000000     0.500000000000     0          
C3       C      0.831300000000     0.883900000000     0.500000000000     0          
H2       H      0.824000000000     0.912000000000     0.500000000000     0          
C4       C      0.801200000000     0.853500000000     0.500000000000     0          
H3       H      0.773000000000     0.860700000000     0.500000000000     0          
C1       C      0.903840000000     0.903840000000     0.500000000000     0          
C2       C      0.871900000000     0.871900000000     0.500000000000     0          
C5       C      0.813000000000     0.813000000000     0.500000000000     0          
C6       C      0.779000000000     0.779000000000     0.500000000000     0          
C7       C      0.765170000000     0.765170000000     0.538000000000     0          
C8       C      0.781800000000     0.781800000000     0.573900000000     0          
C9       C      0.796600000000     0.796600000000     0.602300000000     0          
H4       H      0.808700000000     0.808700000000     0.625700000000     0          
O2       O      0.941550000000     0.890660000000     0.500000000000     0          
C3       C      0.883900000000     0.831300000000     0.500000000000     0          
H2       H      0.912000000000     0.824000000000     0.500000000000     0          
C4       C      0.853500000000     0.801200000000     0.500000000000     0          
H3       H      0.860700000000     0.773000000000     0.500000000000     0          
C7       C      0.765170000000     0.765170000000     0.462000000000     0          
C8       C      0.781800000000     0.781800000000     0.426100000000     0          
C9       C      0.796600000000     0.796600000000     0.397700000000     0          
H4       H      0.808700000000     0.808700000000     0.374300000000     0          
O2       O      0.109340000000     0.941550000000     0.500000000000     0          
C3       C      0.168700000000     0.883900000000     0.500000000000     0          
H2       H      0.176000000000     0.912000000000     0.500000000000     0          
C4       C      0.198800000000     0.853500000000     0.500000000000     0          
H3       H      0.227000000000     0.860700000000     0.500000000000     0          
C7       C      0.234830000000     0.765170000000     0.462000000000     0          
C8       C      0.218200000000     0.781800000000     0.426100000000     0          
C9       C      0.203400000000     0.796600000000     0.397700000000     0          
H4       H      0.191300000000     0.808700000000     0.374300000000     0          
O2       O      0.890660000000     0.058450000000     0.500000000000     0          
C3       C      0.831300000000     0.116100000000     0.500000000000     0          
H2       H      0.824000000000     0.088000000000     0.500000000000     0          
C4       C      0.801200000000     0.146500000000     0.500000000000     0          
H3       H      0.773000000000     0.139300000000     0.500000000000     0          
C7       C      0.765170000000     0.234830000000     0.462000000000     0          
C8       C      0.781800000000     0.218200000000     0.426100000000     0          
C9       C      0.796600000000     0.203400000000     0.397700000000     0          
H4       H      0.808700000000     0.191300000000     0.374300000000     0          


