data_QURNOI

_audit_creation_method RASPA-1.0
_audit_creation_date 2020-11-2
_audit_author_name 'Rocio Bueno-Perez'

_cell_length_a    26.0729
_cell_length_b    26.0729
_cell_length_c    26.0729
_cell_angle_alpha 90
_cell_angle_beta  90
_cell_angle_gamma 90
_cell_volume      17724.3

_symmetry_cell_setting          cubic
_symmetry_space_group_name_Hall 'P 1'
_symmetry_space_group_name_H-M  'P 1'
_symmetry_Int_Tables_number     1

_symmetry_equiv_pos_as_xyz 'x,y,z'

loop_
_atom_site_label
_atom_site_type_symbol
_atom_site_fract_x
_atom_site_fract_y
_atom_site_fract_z
_atom_site_charge
Zr1      Zr     0.984700000000     0.407590000000     0.986870000000     0          
O2       O      0.931700000000     0.464400000000     0.949500000000     0          
C3       C      0.986000000000     0.319570000000     0.135270000000     0          
C4       C      0.993750000000     0.363520000000     0.100390000000     0          
O5       O      0.006410000000     0.405510000000     0.121660000000     0          
O6       O      0.987350000000     0.354970000000     0.052920000000     0          
C7       C      0.963500000000     0.133800000000     0.321800000000     0          
C8       C      0.967200000000     0.098460000000     0.365900000000     0          
O9       O      0.968100000000     0.120410000000     0.409770000000     0          
O10      O      0.969150000000     0.051160000000     0.356660000000     0          
C11      C      0.973100000000     0.241600000000     0.203300000000     0          
C12      C      0.967500000000     0.201500000000     0.242700000000     0          
Cl13     Cl     0.016200000000     0.294900000000     0.386800000000     0          
Cl14     Cl     0.030200000000     0.378100000000     0.292200000000     0          
Co15     Co     0.002500000000     0.295750000000     0.299500000000     0          
C16      C      0.957900000000     0.232800000000     0.151600000000     0          
C17      C      0.963600000000     0.273200000000     0.117900000000     0          
C18      C      0.003000000000     0.322600000000     0.184700000000     0          
C19      C      0.945700000000     0.154200000000     0.235000000000     0          
C20      C      0.947200000000     0.117300000000     0.274500000000     0          
C21      C      0.981400000000     0.183800000000     0.329300000000     0          
N22      N      0.995500000000     0.286200000000     0.218600000000     0          
N23      N      0.984200000000     0.221500000000     0.290100000000     0          
H24      H      0.924480000000     0.768690000000     0.564300000000     0          
H25      H      0.941940000000     0.193830000000     0.139840000000     0          
H26      H      0.950450000000     0.269490000000     0.076370000000     0          
H27      H      0.926510000000     0.144920000000     0.196820000000     0          
H28      H      0.994930000000     0.196470000000     0.368900000000     0          
H29      H      0.024850000000     0.358000000000     0.198170000000     0          
O30      O      0.947400000000     0.447400000000     0.052600000000     0          
C31      C      0.856600000000     0.356600000000     0.143400000000     0          
C32      C      0.824900000000     0.324900000000     0.175100000000     0          
N33      N      0.882400000000     0.382400000000     0.117600000000     0          
Zr1      Zr     0.515300000000     0.592410000000     0.486870000000     0          
O2       O      0.568300000000     0.535600000000     0.449500000000     0          
C3       C      0.514000000000     0.680430000000     0.635270000000     0          
C4       C      0.506250000000     0.636480000000     0.600390000000     0          
O5       O      0.493590000000     0.594490000000     0.621660000000     0          
O6       O      0.512650000000     0.645030000000     0.552920000000     0          
C7       C      0.536500000000     0.866200000000     0.821800000000     0          
C8       C      0.532800000000     0.901540000000     0.865900000000     0          
O9       O      0.531900000000     0.879590000000     0.909770000000     0          
O10      O      0.530850000000     0.948840000000     0.856660000000     0          
C11      C      0.526900000000     0.758400000000     0.703300000000     0          
C12      C      0.532500000000     0.798500000000     0.742700000000     0          
Cl13     Cl     0.483800000000     0.705100000000     0.886800000000     0          
Cl14     Cl     0.469800000000     0.621900000000     0.792200000000     0          
Co15     Co     0.497500000000     0.704250000000     0.799500000000     0          
C16      C      0.542100000000     0.767200000000     0.651600000000     0          
C17      C      0.536400000000     0.726800000000     0.617900000000     0          
C18      C      0.497000000000     0.677400000000     0.684700000000     0          
C19      C      0.554300000000     0.845800000000     0.735000000000     0          
C20      C      0.552800000000     0.882700000000     0.774500000000     0          
C21      C      0.518600000000     0.816200000000     0.829300000000     0          
N22      N      0.504500000000     0.713800000000     0.718600000000     0          
N23      N      0.515800000000     0.778500000000     0.790100000000     0          
H24      H      0.575520000000     0.231310000000     0.064300000000     0          
H25      H      0.558060000000     0.806170000000     0.639840000000     0          
H26      H      0.549550000000     0.730510000000     0.576370000000     0          
H27      H      0.573490000000     0.855080000000     0.696820000000     0          
H28      H      0.505070000000     0.803530000000     0.868900000000     0          
H29      H      0.475150000000     0.642000000000     0.698170000000     0          
O30      O      0.552600000000     0.552600000000     0.552600000000     0          
C31      C      0.643400000000     0.643400000000     0.643400000000     0          
C32      C      0.675100000000     0.675100000000     0.675100000000     0          
N33      N      0.617600000000     0.617600000000     0.617600000000     0          
Zr1      Zr     0.484700000000     0.092410000000     0.013130000000     0          
O2       O      0.431700000000     0.035600000000     0.050500000000     0          
C3       C      0.486000000000     0.180430000000     0.864730000000     0          
C4       C      0.493750000000     0.136480000000     0.899610000000     0          
O5       O      0.506410000000     0.094490000000     0.878340000000     0          
O6       O      0.487350000000     0.145030000000     0.947080000000     0          
C7       C      0.463500000000     0.366200000000     0.678200000000     0          
C8       C      0.467200000000     0.401540000000     0.634100000000     0          
O9       O      0.468100000000     0.379590000000     0.590230000000     0          
O10      O      0.469150000000     0.448840000000     0.643340000000     0          
C11      C      0.473100000000     0.258400000000     0.796700000000     0          
C12      C      0.467500000000     0.298500000000     0.757300000000     0          
Cl13     Cl     0.516200000000     0.205100000000     0.613200000000     0          
Cl14     Cl     0.530200000000     0.121900000000     0.707800000000     0          
Co15     Co     0.502500000000     0.204250000000     0.700500000000     0          
C16      C      0.457900000000     0.267200000000     0.848400000000     0          
C17      C      0.463600000000     0.226800000000     0.882100000000     0          
C18      C      0.503000000000     0.177400000000     0.815300000000     0          
C19      C      0.445700000000     0.345800000000     0.765000000000     0          
C20      C      0.447200000000     0.382700000000     0.725500000000     0          
C21      C      0.481400000000     0.316200000000     0.670700000000     0          
N22      N      0.495500000000     0.213800000000     0.781400000000     0          
N23      N      0.484200000000     0.278500000000     0.709900000000     0          
H24      H      0.424480000000     0.731310000000     0.435700000000     0          
H25      H      0.441940000000     0.306170000000     0.860160000000     0          
H26      H      0.450450000000     0.230510000000     0.923630000000     0          
H27      H      0.426510000000     0.355080000000     0.803180000000     0          
H28      H      0.494930000000     0.303530000000     0.631100000000     0          
H29      H      0.524850000000     0.142000000000     0.801830000000     0          
O30      O      0.447400000000     0.052600000000     0.947400000000     0          
C31      C      0.356600000000     0.143400000000     0.856600000000     0          
C32      C      0.324900000000     0.175100000000     0.824900000000     0          
N33      N      0.382400000000     0.117600000000     0.882400000000     0          
Zr1      Zr     0.015300000000     0.907590000000     0.513130000000     0          
O2       O      0.068300000000     0.964400000000     0.550500000000     0          
C3       C      0.014000000000     0.819570000000     0.364730000000     0          
C4       C      0.006250000000     0.863520000000     0.399610000000     0          
O5       O      0.993590000000     0.905510000000     0.378340000000     0          
O6       O      0.012650000000     0.854970000000     0.447080000000     0          
C7       C      0.036500000000     0.633800000000     0.178200000000     0          
C8       C      0.032800000000     0.598460000000     0.134100000000     0          
O9       O      0.031900000000     0.620410000000     0.090230000000     0          
O10      O      0.030850000000     0.551160000000     0.143340000000     0          
C11      C      0.026900000000     0.741600000000     0.296700000000     0          
C12      C      0.032500000000     0.701500000000     0.257300000000     0          
Cl13     Cl     0.983800000000     0.794900000000     0.113200000000     0          
Cl14     Cl     0.969800000000     0.878100000000     0.207800000000     0          
Co15     Co     0.997500000000     0.795750000000     0.200500000000     0          
C16      C      0.042100000000     0.732800000000     0.348400000000     0          
C17      C      0.036400000000     0.773200000000     0.382100000000     0          
C18      C      0.997000000000     0.822600000000     0.315300000000     0          
C19      C      0.054300000000     0.654200000000     0.265000000000     0          
C20      C      0.052800000000     0.617300000000     0.225500000000     0          
C21      C      0.018600000000     0.683800000000     0.170700000000     0          
N22      N      0.004500000000     0.786200000000     0.281400000000     0          
N23      N      0.015800000000     0.721500000000     0.209900000000     0          
H24      H      0.075520000000     0.268690000000     0.935700000000     0          
H25      H      0.058060000000     0.693830000000     0.360160000000     0          
H26      H      0.049550000000     0.769490000000     0.423630000000     0          
H27      H      0.073490000000     0.644920000000     0.303180000000     0          
H28      H      0.005070000000     0.696470000000     0.131100000000     0          
H29      H      0.975150000000     0.858000000000     0.301830000000     0          
O30      O      0.052600000000     0.947400000000     0.447400000000     0          
C31      C      0.143400000000     0.856600000000     0.356600000000     0          
C32      C      0.175100000000     0.824900000000     0.324900000000     0          
N33      N      0.117600000000     0.882400000000     0.382400000000     0          
Zr1      Zr     0.986870000000     0.984700000000     0.407590000000     0          
O2       O      0.949500000000     0.931700000000     0.464400000000     0          
C3       C      0.135270000000     0.986000000000     0.319570000000     0          
C4       C      0.100390000000     0.993750000000     0.363520000000     0          
O5       O      0.121660000000     0.006410000000     0.405510000000     0          
O6       O      0.052920000000     0.987350000000     0.354970000000     0          
C7       C      0.321800000000     0.963500000000     0.133800000000     0          
C8       C      0.365900000000     0.967200000000     0.098460000000     0          
O9       O      0.409770000000     0.968100000000     0.120410000000     0          
O10      O      0.356660000000     0.969150000000     0.051160000000     0          
C11      C      0.203300000000     0.973100000000     0.241600000000     0          
C12      C      0.242700000000     0.967500000000     0.201500000000     0          
Cl13     Cl     0.386800000000     0.016200000000     0.294900000000     0          
Cl14     Cl     0.292200000000     0.030200000000     0.378100000000     0          
Co15     Co     0.299500000000     0.002500000000     0.295750000000     0          
C16      C      0.151600000000     0.957900000000     0.232800000000     0          
C17      C      0.117900000000     0.963600000000     0.273200000000     0          
C18      C      0.184700000000     0.003000000000     0.322600000000     0          
C19      C      0.235000000000     0.945700000000     0.154200000000     0          
C20      C      0.274500000000     0.947200000000     0.117300000000     0          
C21      C      0.329300000000     0.981400000000     0.183800000000     0          
N22      N      0.218600000000     0.995500000000     0.286200000000     0          
N23      N      0.290100000000     0.984200000000     0.221500000000     0          
H24      H      0.564300000000     0.924480000000     0.768690000000     0          
H25      H      0.139840000000     0.941940000000     0.193830000000     0          
H26      H      0.076370000000     0.950450000000     0.269490000000     0          
H27      H      0.196820000000     0.926510000000     0.144920000000     0          
H28      H      0.368900000000     0.994930000000     0.196470000000     0          
H29      H      0.198170000000     0.024850000000     0.358000000000     0          
Zr1      Zr     0.513130000000     0.015300000000     0.907590000000     0          
O2       O      0.550500000000     0.068300000000     0.964400000000     0          
C3       C      0.364730000000     0.014000000000     0.819570000000     0          
C4       C      0.399610000000     0.006250000000     0.863520000000     0          
O5       O      0.378340000000     0.993590000000     0.905510000000     0          
O6       O      0.447080000000     0.012650000000     0.854970000000     0          
C7       C      0.178200000000     0.036500000000     0.633800000000     0          
C8       C      0.134100000000     0.032800000000     0.598460000000     0          
O9       O      0.090230000000     0.031900000000     0.620410000000     0          
O10      O      0.143340000000     0.030850000000     0.551160000000     0          
C11      C      0.296700000000     0.026900000000     0.741600000000     0          
C12      C      0.257300000000     0.032500000000     0.701500000000     0          
Cl13     Cl     0.113200000000     0.983800000000     0.794900000000     0          
Cl14     Cl     0.207800000000     0.969800000000     0.878100000000     0          
Co15     Co     0.200500000000     0.997500000000     0.795750000000     0          
C16      C      0.348400000000     0.042100000000     0.732800000000     0          
C17      C      0.382100000000     0.036400000000     0.773200000000     0          
C18      C      0.315300000000     0.997000000000     0.822600000000     0          
C19      C      0.265000000000     0.054300000000     0.654200000000     0          
C20      C      0.225500000000     0.052800000000     0.617300000000     0          
C21      C      0.170700000000     0.018600000000     0.683800000000     0          
N22      N      0.281400000000     0.004500000000     0.786200000000     0          
N23      N      0.209900000000     0.015800000000     0.721500000000     0          
H24      H      0.935700000000     0.075520000000     0.268690000000     0          
H25      H      0.360160000000     0.058060000000     0.693830000000     0          
H26      H      0.423630000000     0.049550000000     0.769490000000     0          
H27      H      0.303180000000     0.073490000000     0.644920000000     0          
H28      H      0.131100000000     0.005070000000     0.696470000000     0          
H29      H      0.301830000000     0.975150000000     0.858000000000     0          
Zr1      Zr     0.486870000000     0.515300000000     0.592410000000     0          
O2       O      0.449500000000     0.568300000000     0.535600000000     0          
C3       C      0.635270000000     0.514000000000     0.680430000000     0          
C4       C      0.600390000000     0.506250000000     0.636480000000     0          
O5       O      0.621660000000     0.493590000000     0.594490000000     0          
O6       O      0.552920000000     0.512650000000     0.645030000000     0          
C7       C      0.821800000000     0.536500000000     0.866200000000     0          
C8       C      0.865900000000     0.532800000000     0.901540000000     0          
O9       O      0.909770000000     0.531900000000     0.879590000000     0          
O10      O      0.856660000000     0.530850000000     0.948840000000     0          
C11      C      0.703300000000     0.526900000000     0.758400000000     0          
C12      C      0.742700000000     0.532500000000     0.798500000000     0          
Cl13     Cl     0.886800000000     0.483800000000     0.705100000000     0          
Cl14     Cl     0.792200000000     0.469800000000     0.621900000000     0          
Co15     Co     0.799500000000     0.497500000000     0.704250000000     0          
C16      C      0.651600000000     0.542100000000     0.767200000000     0          
C17      C      0.617900000000     0.536400000000     0.726800000000     0          
C18      C      0.684700000000     0.497000000000     0.677400000000     0          
C19      C      0.735000000000     0.554300000000     0.845800000000     0          
C20      C      0.774500000000     0.552800000000     0.882700000000     0          
C21      C      0.829300000000     0.518600000000     0.816200000000     0          
N22      N      0.718600000000     0.504500000000     0.713800000000     0          
N23      N      0.790100000000     0.515800000000     0.778500000000     0          
H24      H      0.064300000000     0.575520000000     0.231310000000     0          
H25      H      0.639840000000     0.558060000000     0.806170000000     0          
H26      H      0.576370000000     0.549550000000     0.730510000000     0          
H27      H      0.696820000000     0.573490000000     0.855080000000     0          
H28      H      0.868900000000     0.505070000000     0.803530000000     0          
H29      H      0.698170000000     0.475150000000     0.642000000000     0          
Zr1      Zr     0.013130000000     0.484700000000     0.092410000000     0          
O2       O      0.050500000000     0.431700000000     0.035600000000     0          
C3       C      0.864730000000     0.486000000000     0.180430000000     0          
C4       C      0.899610000000     0.493750000000     0.136480000000     0          
O5       O      0.878340000000     0.506410000000     0.094490000000     0          
O6       O      0.947080000000     0.487350000000     0.145030000000     0          
C7       C      0.678200000000     0.463500000000     0.366200000000     0          
C8       C      0.634100000000     0.467200000000     0.401540000000     0          
O9       O      0.590230000000     0.468100000000     0.379590000000     0          
O10      O      0.643340000000     0.469150000000     0.448840000000     0          
C11      C      0.796700000000     0.473100000000     0.258400000000     0          
C12      C      0.757300000000     0.467500000000     0.298500000000     0          
Cl13     Cl     0.613200000000     0.516200000000     0.205100000000     0          
Cl14     Cl     0.707800000000     0.530200000000     0.121900000000     0          
Co15     Co     0.700500000000     0.502500000000     0.204250000000     0          
C16      C      0.848400000000     0.457900000000     0.267200000000     0          
C17      C      0.882100000000     0.463600000000     0.226800000000     0          
C18      C      0.815300000000     0.503000000000     0.177400000000     0          
C19      C      0.765000000000     0.445700000000     0.345800000000     0          
C20      C      0.725500000000     0.447200000000     0.382700000000     0          
C21      C      0.670700000000     0.481400000000     0.316200000000     0          
N22      N      0.781400000000     0.495500000000     0.213800000000     0          
N23      N      0.709900000000     0.484200000000     0.278500000000     0          
H24      H      0.435700000000     0.424480000000     0.731310000000     0          
H25      H      0.860160000000     0.441940000000     0.306170000000     0          
H26      H      0.923630000000     0.450450000000     0.230510000000     0          
H27      H      0.803180000000     0.426510000000     0.355080000000     0          
H28      H      0.631100000000     0.494930000000     0.303530000000     0          
H29      H      0.801830000000     0.524850000000     0.142000000000     0          
Zr1      Zr     0.407590000000     0.986870000000     0.984700000000     0          
O2       O      0.464400000000     0.949500000000     0.931700000000     0          
C3       C      0.319570000000     0.135270000000     0.986000000000     0          
C4       C      0.363520000000     0.100390000000     0.993750000000     0          
O5       O      0.405510000000     0.121660000000     0.006410000000     0          
O6       O      0.354970000000     0.052920000000     0.987350000000     0          
C7       C      0.133800000000     0.321800000000     0.963500000000     0          
C8       C      0.098460000000     0.365900000000     0.967200000000     0          
O9       O      0.120410000000     0.409770000000     0.968100000000     0          
O10      O      0.051160000000     0.356660000000     0.969150000000     0          
C11      C      0.241600000000     0.203300000000     0.973100000000     0          
C12      C      0.201500000000     0.242700000000     0.967500000000     0          
Cl13     Cl     0.294900000000     0.386800000000     0.016200000000     0          
Cl14     Cl     0.378100000000     0.292200000000     0.030200000000     0          
Co15     Co     0.295750000000     0.299500000000     0.002500000000     0          
C16      C      0.232800000000     0.151600000000     0.957900000000     0          
C17      C      0.273200000000     0.117900000000     0.963600000000     0          
C18      C      0.322600000000     0.184700000000     0.003000000000     0          
C19      C      0.154200000000     0.235000000000     0.945700000000     0          
C20      C      0.117300000000     0.274500000000     0.947200000000     0          
C21      C      0.183800000000     0.329300000000     0.981400000000     0          
N22      N      0.286200000000     0.218600000000     0.995500000000     0          
N23      N      0.221500000000     0.290100000000     0.984200000000     0          
H24      H      0.768690000000     0.564300000000     0.924480000000     0          
H25      H      0.193830000000     0.139840000000     0.941940000000     0          
H26      H      0.269490000000     0.076370000000     0.950450000000     0          
H27      H      0.144920000000     0.196820000000     0.926510000000     0          
H28      H      0.196470000000     0.368900000000     0.994930000000     0          
H29      H      0.358000000000     0.198170000000     0.024850000000     0          
Zr1      Zr     0.907590000000     0.513130000000     0.015300000000     0          
O2       O      0.964400000000     0.550500000000     0.068300000000     0          
C3       C      0.819570000000     0.364730000000     0.014000000000     0          
C4       C      0.863520000000     0.399610000000     0.006250000000     0          
O5       O      0.905510000000     0.378340000000     0.993590000000     0          
O6       O      0.854970000000     0.447080000000     0.012650000000     0          
C7       C      0.633800000000     0.178200000000     0.036500000000     0          
C8       C      0.598460000000     0.134100000000     0.032800000000     0          
O9       O      0.620410000000     0.090230000000     0.031900000000     0          
O10      O      0.551160000000     0.143340000000     0.030850000000     0          
C11      C      0.741600000000     0.296700000000     0.026900000000     0          
C12      C      0.701500000000     0.257300000000     0.032500000000     0          
Cl13     Cl     0.794900000000     0.113200000000     0.983800000000     0          
Cl14     Cl     0.878100000000     0.207800000000     0.969800000000     0          
Co15     Co     0.795750000000     0.200500000000     0.997500000000     0          
C16      C      0.732800000000     0.348400000000     0.042100000000     0          
C17      C      0.773200000000     0.382100000000     0.036400000000     0          
C18      C      0.822600000000     0.315300000000     0.997000000000     0          
C19      C      0.654200000000     0.265000000000     0.054300000000     0          
C20      C      0.617300000000     0.225500000000     0.052800000000     0          
C21      C      0.683800000000     0.170700000000     0.018600000000     0          
N22      N      0.786200000000     0.281400000000     0.004500000000     0          
N23      N      0.721500000000     0.209900000000     0.015800000000     0          
H24      H      0.268690000000     0.935700000000     0.075520000000     0          
H25      H      0.693830000000     0.360160000000     0.058060000000     0          
H26      H      0.769490000000     0.423630000000     0.049550000000     0          
H27      H      0.644920000000     0.303180000000     0.073490000000     0          
H28      H      0.696470000000     0.131100000000     0.005070000000     0          
H29      H      0.858000000000     0.301830000000     0.975150000000     0          
Zr1      Zr     0.592410000000     0.486870000000     0.515300000000     0          
O2       O      0.535600000000     0.449500000000     0.568300000000     0          
C3       C      0.680430000000     0.635270000000     0.514000000000     0          
C4       C      0.636480000000     0.600390000000     0.506250000000     0          
O5       O      0.594490000000     0.621660000000     0.493590000000     0          
O6       O      0.645030000000     0.552920000000     0.512650000000     0          
C7       C      0.866200000000     0.821800000000     0.536500000000     0          
C8       C      0.901540000000     0.865900000000     0.532800000000     0          
O9       O      0.879590000000     0.909770000000     0.531900000000     0          
O10      O      0.948840000000     0.856660000000     0.530850000000     0          
C11      C      0.758400000000     0.703300000000     0.526900000000     0          
C12      C      0.798500000000     0.742700000000     0.532500000000     0          
Cl13     Cl     0.705100000000     0.886800000000     0.483800000000     0          
Cl14     Cl     0.621900000000     0.792200000000     0.469800000000     0          
Co15     Co     0.704250000000     0.799500000000     0.497500000000     0          
C16      C      0.767200000000     0.651600000000     0.542100000000     0          
C17      C      0.726800000000     0.617900000000     0.536400000000     0          
C18      C      0.677400000000     0.684700000000     0.497000000000     0          
C19      C      0.845800000000     0.735000000000     0.554300000000     0          
C20      C      0.882700000000     0.774500000000     0.552800000000     0          
C21      C      0.816200000000     0.829300000000     0.518600000000     0          
N22      N      0.713800000000     0.718600000000     0.504500000000     0          
N23      N      0.778500000000     0.790100000000     0.515800000000     0          
H24      H      0.231310000000     0.064300000000     0.575520000000     0          
H25      H      0.806170000000     0.639840000000     0.558060000000     0          
H26      H      0.730510000000     0.576370000000     0.549550000000     0          
H27      H      0.855080000000     0.696820000000     0.573490000000     0          
H28      H      0.803530000000     0.868900000000     0.505070000000     0          
H29      H      0.642000000000     0.698170000000     0.475150000000     0          
Zr1      Zr     0.092410000000     0.013130000000     0.484700000000     0          
O2       O      0.035600000000     0.050500000000     0.431700000000     0          
C3       C      0.180430000000     0.864730000000     0.486000000000     0          
C4       C      0.136480000000     0.899610000000     0.493750000000     0          
O5       O      0.094490000000     0.878340000000     0.506410000000     0          
O6       O      0.145030000000     0.947080000000     0.487350000000     0          
C7       C      0.366200000000     0.678200000000     0.463500000000     0          
C8       C      0.401540000000     0.634100000000     0.467200000000     0          
O9       O      0.379590000000     0.590230000000     0.468100000000     0          
O10      O      0.448840000000     0.643340000000     0.469150000000     0          
C11      C      0.258400000000     0.796700000000     0.473100000000     0          
C12      C      0.298500000000     0.757300000000     0.467500000000     0          
Cl13     Cl     0.205100000000     0.613200000000     0.516200000000     0          
Cl14     Cl     0.121900000000     0.707800000000     0.530200000000     0          
Co15     Co     0.204250000000     0.700500000000     0.502500000000     0          
C16      C      0.267200000000     0.848400000000     0.457900000000     0          
C17      C      0.226800000000     0.882100000000     0.463600000000     0          
C18      C      0.177400000000     0.815300000000     0.503000000000     0          
C19      C      0.345800000000     0.765000000000     0.445700000000     0          
C20      C      0.382700000000     0.725500000000     0.447200000000     0          
C21      C      0.316200000000     0.670700000000     0.481400000000     0          
N22      N      0.213800000000     0.781400000000     0.495500000000     0          
N23      N      0.278500000000     0.709900000000     0.484200000000     0          
H24      H      0.731310000000     0.435700000000     0.424480000000     0          
H25      H      0.306170000000     0.860160000000     0.441940000000     0          
H26      H      0.230510000000     0.923630000000     0.450450000000     0          
H27      H      0.355080000000     0.803180000000     0.426510000000     0          
H28      H      0.303530000000     0.631100000000     0.494930000000     0          
H29      H      0.142000000000     0.801830000000     0.524850000000     0          
Zr1      Zr     0.015300000000     0.592410000000     0.013130000000     0          
O2       O      0.068300000000     0.535600000000     0.050500000000     0          
C3       C      0.014000000000     0.680430000000     0.864730000000     0          
C4       C      0.006250000000     0.636480000000     0.899610000000     0          
O5       O      0.993590000000     0.594490000000     0.878340000000     0          
O6       O      0.012650000000     0.645030000000     0.947080000000     0          
C7       C      0.036500000000     0.866200000000     0.678200000000     0          
C8       C      0.032800000000     0.901540000000     0.634100000000     0          
O9       O      0.031900000000     0.879590000000     0.590230000000     0          
O10      O      0.030850000000     0.948840000000     0.643340000000     0          
C11      C      0.026900000000     0.758400000000     0.796700000000     0          
C12      C      0.032500000000     0.798500000000     0.757300000000     0          
Cl13     Cl     0.983800000000     0.705100000000     0.613200000000     0          
Cl14     Cl     0.969800000000     0.621900000000     0.707800000000     0          
Co15     Co     0.997500000000     0.704250000000     0.700500000000     0          
C16      C      0.042100000000     0.767200000000     0.848400000000     0          
C17      C      0.036400000000     0.726800000000     0.882100000000     0          
C18      C      0.997000000000     0.677400000000     0.815300000000     0          
C19      C      0.054300000000     0.845800000000     0.765000000000     0          
C20      C      0.052800000000     0.882700000000     0.725500000000     0          
C21      C      0.018600000000     0.816200000000     0.670700000000     0          
N22      N      0.004500000000     0.713800000000     0.781400000000     0          
N23      N      0.015800000000     0.778500000000     0.709900000000     0          
H24      H      0.075520000000     0.231310000000     0.435700000000     0          
H25      H      0.058060000000     0.806170000000     0.860160000000     0          
H26      H      0.049550000000     0.730510000000     0.923630000000     0          
H27      H      0.073490000000     0.855080000000     0.803180000000     0          
H28      H      0.005070000000     0.803530000000     0.631100000000     0          
H29      H      0.975150000000     0.642000000000     0.801830000000     0          
O30      O      0.052600000000     0.552600000000     0.947400000000     0          
C31      C      0.143400000000     0.643400000000     0.856600000000     0          
C32      C      0.175100000000     0.675100000000     0.824900000000     0          
N33      N      0.117600000000     0.617600000000     0.882400000000     0          
Zr1      Zr     0.484700000000     0.407590000000     0.513130000000     0          
O2       O      0.431700000000     0.464400000000     0.550500000000     0          
C3       C      0.486000000000     0.319570000000     0.364730000000     0          
C4       C      0.493750000000     0.363520000000     0.399610000000     0          
O5       O      0.506410000000     0.405510000000     0.378340000000     0          
O6       O      0.487350000000     0.354970000000     0.447080000000     0          
C7       C      0.463500000000     0.133800000000     0.178200000000     0          
C8       C      0.467200000000     0.098460000000     0.134100000000     0          
O9       O      0.468100000000     0.120410000000     0.090230000000     0          
O10      O      0.469150000000     0.051160000000     0.143340000000     0          
C11      C      0.473100000000     0.241600000000     0.296700000000     0          
C12      C      0.467500000000     0.201500000000     0.257300000000     0          
Cl13     Cl     0.516200000000     0.294900000000     0.113200000000     0          
Cl14     Cl     0.530200000000     0.378100000000     0.207800000000     0          
Co15     Co     0.502500000000     0.295750000000     0.200500000000     0          
C16      C      0.457900000000     0.232800000000     0.348400000000     0          
C17      C      0.463600000000     0.273200000000     0.382100000000     0          
C18      C      0.503000000000     0.322600000000     0.315300000000     0          
C19      C      0.445700000000     0.154200000000     0.265000000000     0          
C20      C      0.447200000000     0.117300000000     0.225500000000     0          
C21      C      0.481400000000     0.183800000000     0.170700000000     0          
N22      N      0.495500000000     0.286200000000     0.281400000000     0          
N23      N      0.484200000000     0.221500000000     0.209900000000     0          
H24      H      0.424480000000     0.768690000000     0.935700000000     0          
H25      H      0.441940000000     0.193830000000     0.360160000000     0          
H26      H      0.450450000000     0.269490000000     0.423630000000     0          
H27      H      0.426510000000     0.144920000000     0.303180000000     0          
H28      H      0.494930000000     0.196470000000     0.131100000000     0          
H29      H      0.524850000000     0.358000000000     0.301830000000     0          
O30      O      0.447400000000     0.447400000000     0.447400000000     0          
C31      C      0.356600000000     0.356600000000     0.356600000000     0          
C32      C      0.324900000000     0.324900000000     0.324900000000     0          
N33      N      0.382400000000     0.382400000000     0.382400000000     0          
Zr1      Zr     0.515300000000     0.907590000000     0.986870000000     0          
O2       O      0.568300000000     0.964400000000     0.949500000000     0          
C3       C      0.514000000000     0.819570000000     0.135270000000     0          
C4       C      0.506250000000     0.863520000000     0.100390000000     0          
O5       O      0.493590000000     0.905510000000     0.121660000000     0          
O6       O      0.512650000000     0.854970000000     0.052920000000     0          
C7       C      0.536500000000     0.633800000000     0.321800000000     0          
C8       C      0.532800000000     0.598460000000     0.365900000000     0          
O9       O      0.531900000000     0.620410000000     0.409770000000     0          
O10      O      0.530850000000     0.551160000000     0.356660000000     0          
C11      C      0.526900000000     0.741600000000     0.203300000000     0          
C12      C      0.532500000000     0.701500000000     0.242700000000     0          
Cl13     Cl     0.483800000000     0.794900000000     0.386800000000     0          
Cl14     Cl     0.469800000000     0.878100000000     0.292200000000     0          
Co15     Co     0.497500000000     0.795750000000     0.299500000000     0          
C16      C      0.542100000000     0.732800000000     0.151600000000     0          
C17      C      0.536400000000     0.773200000000     0.117900000000     0          
C18      C      0.497000000000     0.822600000000     0.184700000000     0          
C19      C      0.554300000000     0.654200000000     0.235000000000     0          
C20      C      0.552800000000     0.617300000000     0.274500000000     0          
C21      C      0.518600000000     0.683800000000     0.329300000000     0          
N22      N      0.504500000000     0.786200000000     0.218600000000     0          
N23      N      0.515800000000     0.721500000000     0.290100000000     0          
H24      H      0.575520000000     0.268690000000     0.564300000000     0          
H25      H      0.558060000000     0.693830000000     0.139840000000     0          
H26      H      0.549550000000     0.769490000000     0.076370000000     0          
H27      H      0.573490000000     0.644920000000     0.196820000000     0          
H28      H      0.505070000000     0.696470000000     0.368900000000     0          
H29      H      0.475150000000     0.858000000000     0.198170000000     0          
O30      O      0.552600000000     0.947400000000     0.052600000000     0          
C31      C      0.643400000000     0.856600000000     0.143400000000     0          
C32      C      0.675100000000     0.824900000000     0.175100000000     0          
N33      N      0.617600000000     0.882400000000     0.117600000000     0          
Zr1      Zr     0.984700000000     0.092410000000     0.486870000000     0          
O2       O      0.931700000000     0.035600000000     0.449500000000     0          
C3       C      0.986000000000     0.180430000000     0.635270000000     0          
C4       C      0.993750000000     0.136480000000     0.600390000000     0          
O5       O      0.006410000000     0.094490000000     0.621660000000     0          
O6       O      0.987350000000     0.145030000000     0.552920000000     0          
C7       C      0.963500000000     0.366200000000     0.821800000000     0          
C8       C      0.967200000000     0.401540000000     0.865900000000     0          
O9       O      0.968100000000     0.379590000000     0.909770000000     0          
O10      O      0.969150000000     0.448840000000     0.856660000000     0          
C11      C      0.973100000000     0.258400000000     0.703300000000     0          
C12      C      0.967500000000     0.298500000000     0.742700000000     0          
Cl13     Cl     0.016200000000     0.205100000000     0.886800000000     0          
Cl14     Cl     0.030200000000     0.121900000000     0.792200000000     0          
Co15     Co     0.002500000000     0.204250000000     0.799500000000     0          
C16      C      0.957900000000     0.267200000000     0.651600000000     0          
C17      C      0.963600000000     0.226800000000     0.617900000000     0          
C18      C      0.003000000000     0.177400000000     0.684700000000     0          
C19      C      0.945700000000     0.345800000000     0.735000000000     0          
C20      C      0.947200000000     0.382700000000     0.774500000000     0          
C21      C      0.981400000000     0.316200000000     0.829300000000     0          
N22      N      0.995500000000     0.213800000000     0.718600000000     0          
N23      N      0.984200000000     0.278500000000     0.790100000000     0          
H24      H      0.924480000000     0.731310000000     0.064300000000     0          
H25      H      0.941940000000     0.306170000000     0.639840000000     0          
H26      H      0.950450000000     0.230510000000     0.576370000000     0          
H27      H      0.926510000000     0.355080000000     0.696820000000     0          
H28      H      0.994930000000     0.303530000000     0.868900000000     0          
H29      H      0.024850000000     0.142000000000     0.698170000000     0          
O30      O      0.947400000000     0.052600000000     0.552600000000     0          
C31      C      0.856600000000     0.143400000000     0.643400000000     0          
C32      C      0.824900000000     0.175100000000     0.675100000000     0          
N33      N      0.882400000000     0.117600000000     0.617600000000     0          
Zr1      Zr     0.013130000000     0.015300000000     0.592410000000     0          
O2       O      0.050500000000     0.068300000000     0.535600000000     0          
C3       C      0.864730000000     0.014000000000     0.680430000000     0          
C4       C      0.899610000000     0.006250000000     0.636480000000     0          
O5       O      0.878340000000     0.993590000000     0.594490000000     0          
O6       O      0.947080000000     0.012650000000     0.645030000000     0          
C7       C      0.678200000000     0.036500000000     0.866200000000     0          
C8       C      0.634100000000     0.032800000000     0.901540000000     0          
O9       O      0.590230000000     0.031900000000     0.879590000000     0          
O10      O      0.643340000000     0.030850000000     0.948840000000     0          
C11      C      0.796700000000     0.026900000000     0.758400000000     0          
C12      C      0.757300000000     0.032500000000     0.798500000000     0          
Cl13     Cl     0.613200000000     0.983800000000     0.705100000000     0          
Cl14     Cl     0.707800000000     0.969800000000     0.621900000000     0          
Co15     Co     0.700500000000     0.997500000000     0.704250000000     0          
C16      C      0.848400000000     0.042100000000     0.767200000000     0          
C17      C      0.882100000000     0.036400000000     0.726800000000     0          
C18      C      0.815300000000     0.997000000000     0.677400000000     0          
C19      C      0.765000000000     0.054300000000     0.845800000000     0          
C20      C      0.725500000000     0.052800000000     0.882700000000     0          
C21      C      0.670700000000     0.018600000000     0.816200000000     0          
N22      N      0.781400000000     0.004500000000     0.713800000000     0          
N23      N      0.709900000000     0.015800000000     0.778500000000     0          
H24      H      0.435700000000     0.075520000000     0.231310000000     0          
H25      H      0.860160000000     0.058060000000     0.806170000000     0          
H26      H      0.923630000000     0.049550000000     0.730510000000     0          
H27      H      0.803180000000     0.073490000000     0.855080000000     0          
H28      H      0.631100000000     0.005070000000     0.803530000000     0          
H29      H      0.801830000000     0.975150000000     0.642000000000     0          
Zr1      Zr     0.486870000000     0.984700000000     0.092410000000     0          
O2       O      0.449500000000     0.931700000000     0.035600000000     0          
C3       C      0.635270000000     0.986000000000     0.180430000000     0          
C4       C      0.600390000000     0.993750000000     0.136480000000     0          
O5       O      0.621660000000     0.006410000000     0.094490000000     0          
O6       O      0.552920000000     0.987350000000     0.145030000000     0          
C7       C      0.821800000000     0.963500000000     0.366200000000     0          
C8       C      0.865900000000     0.967200000000     0.401540000000     0          
O9       O      0.909770000000     0.968100000000     0.379590000000     0          
O10      O      0.856660000000     0.969150000000     0.448840000000     0          
C11      C      0.703300000000     0.973100000000     0.258400000000     0          
C12      C      0.742700000000     0.967500000000     0.298500000000     0          
Cl13     Cl     0.886800000000     0.016200000000     0.205100000000     0          
Cl14     Cl     0.792200000000     0.030200000000     0.121900000000     0          
Co15     Co     0.799500000000     0.002500000000     0.204250000000     0          
C16      C      0.651600000000     0.957900000000     0.267200000000     0          
C17      C      0.617900000000     0.963600000000     0.226800000000     0          
C18      C      0.684700000000     0.003000000000     0.177400000000     0          
C19      C      0.735000000000     0.945700000000     0.345800000000     0          
C20      C      0.774500000000     0.947200000000     0.382700000000     0          
C21      C      0.829300000000     0.981400000000     0.316200000000     0          
N22      N      0.718600000000     0.995500000000     0.213800000000     0          
N23      N      0.790100000000     0.984200000000     0.278500000000     0          
H24      H      0.064300000000     0.924480000000     0.731310000000     0          
H25      H      0.639840000000     0.941940000000     0.306170000000     0          
H26      H      0.576370000000     0.950450000000     0.230510000000     0          
H27      H      0.696820000000     0.926510000000     0.355080000000     0          
H28      H      0.868900000000     0.994930000000     0.303530000000     0          
H29      H      0.698170000000     0.024850000000     0.142000000000     0          
Zr1      Zr     0.513130000000     0.484700000000     0.407590000000     0          
O2       O      0.550500000000     0.431700000000     0.464400000000     0          
C3       C      0.364730000000     0.486000000000     0.319570000000     0          
C4       C      0.399610000000     0.493750000000     0.363520000000     0          
O5       O      0.378340000000     0.506410000000     0.405510000000     0          
O6       O      0.447080000000     0.487350000000     0.354970000000     0          
C7       C      0.178200000000     0.463500000000     0.133800000000     0          
C8       C      0.134100000000     0.467200000000     0.098460000000     0          
O9       O      0.090230000000     0.468100000000     0.120410000000     0          
O10      O      0.143340000000     0.469150000000     0.051160000000     0          
C11      C      0.296700000000     0.473100000000     0.241600000000     0          
C12      C      0.257300000000     0.467500000000     0.201500000000     0          
Cl13     Cl     0.113200000000     0.516200000000     0.294900000000     0          
Cl14     Cl     0.207800000000     0.530200000000     0.378100000000     0          
Co15     Co     0.200500000000     0.502500000000     0.295750000000     0          
C16      C      0.348400000000     0.457900000000     0.232800000000     0          
C17      C      0.382100000000     0.463600000000     0.273200000000     0          
C18      C      0.315300000000     0.503000000000     0.322600000000     0          
C19      C      0.265000000000     0.445700000000     0.154200000000     0          
C20      C      0.225500000000     0.447200000000     0.117300000000     0          
C21      C      0.170700000000     0.481400000000     0.183800000000     0          
N22      N      0.281400000000     0.495500000000     0.286200000000     0          
N23      N      0.209900000000     0.484200000000     0.221500000000     0          
H24      H      0.935700000000     0.424480000000     0.768690000000     0          
H25      H      0.360160000000     0.441940000000     0.193830000000     0          
H26      H      0.423630000000     0.450450000000     0.269490000000     0          
H27      H      0.303180000000     0.426510000000     0.144920000000     0          
H28      H      0.131100000000     0.494930000000     0.196470000000     0          
H29      H      0.301830000000     0.524850000000     0.358000000000     0          
Zr1      Zr     0.986870000000     0.515300000000     0.907590000000     0          
O2       O      0.949500000000     0.568300000000     0.964400000000     0          
C3       C      0.135270000000     0.514000000000     0.819570000000     0          
C4       C      0.100390000000     0.506250000000     0.863520000000     0          
O5       O      0.121660000000     0.493590000000     0.905510000000     0          
O6       O      0.052920000000     0.512650000000     0.854970000000     0          
C7       C      0.321800000000     0.536500000000     0.633800000000     0          
C8       C      0.365900000000     0.532800000000     0.598460000000     0          
O9       O      0.409770000000     0.531900000000     0.620410000000     0          
O10      O      0.356660000000     0.530850000000     0.551160000000     0          
C11      C      0.203300000000     0.526900000000     0.741600000000     0          
C12      C      0.242700000000     0.532500000000     0.701500000000     0          
Cl13     Cl     0.386800000000     0.483800000000     0.794900000000     0          
Cl14     Cl     0.292200000000     0.469800000000     0.878100000000     0          
Co15     Co     0.299500000000     0.497500000000     0.795750000000     0          
C16      C      0.151600000000     0.542100000000     0.732800000000     0          
C17      C      0.117900000000     0.536400000000     0.773200000000     0          
C18      C      0.184700000000     0.497000000000     0.822600000000     0          
C19      C      0.235000000000     0.554300000000     0.654200000000     0          
C20      C      0.274500000000     0.552800000000     0.617300000000     0          
C21      C      0.329300000000     0.518600000000     0.683800000000     0          
N22      N      0.218600000000     0.504500000000     0.786200000000     0          
N23      N      0.290100000000     0.515800000000     0.721500000000     0          
H24      H      0.564300000000     0.575520000000     0.268690000000     0          
H25      H      0.139840000000     0.558060000000     0.693830000000     0          
H26      H      0.076370000000     0.549550000000     0.769490000000     0          
H27      H      0.196820000000     0.573490000000     0.644920000000     0          
H28      H      0.368900000000     0.505070000000     0.696470000000     0          
H29      H      0.198170000000     0.475150000000     0.858000000000     0          
Zr1      Zr     0.592410000000     0.013130000000     0.015300000000     0          
O2       O      0.535600000000     0.050500000000     0.068300000000     0          
C3       C      0.680430000000     0.864730000000     0.014000000000     0          
C4       C      0.636480000000     0.899610000000     0.006250000000     0          
O5       O      0.594490000000     0.878340000000     0.993590000000     0          
O6       O      0.645030000000     0.947080000000     0.012650000000     0          
C7       C      0.866200000000     0.678200000000     0.036500000000     0          
C8       C      0.901540000000     0.634100000000     0.032800000000     0          
O9       O      0.879590000000     0.590230000000     0.031900000000     0          
O10      O      0.948840000000     0.643340000000     0.030850000000     0          
C11      C      0.758400000000     0.796700000000     0.026900000000     0          
C12      C      0.798500000000     0.757300000000     0.032500000000     0          
Cl13     Cl     0.705100000000     0.613200000000     0.983800000000     0          
Cl14     Cl     0.621900000000     0.707800000000     0.969800000000     0          
Co15     Co     0.704250000000     0.700500000000     0.997500000000     0          
C16      C      0.767200000000     0.848400000000     0.042100000000     0          
C17      C      0.726800000000     0.882100000000     0.036400000000     0          
C18      C      0.677400000000     0.815300000000     0.997000000000     0          
C19      C      0.845800000000     0.765000000000     0.054300000000     0          
C20      C      0.882700000000     0.725500000000     0.052800000000     0          
C21      C      0.816200000000     0.670700000000     0.018600000000     0          
N22      N      0.713800000000     0.781400000000     0.004500000000     0          
N23      N      0.778500000000     0.709900000000     0.015800000000     0          
H24      H      0.231310000000     0.435700000000     0.075520000000     0          
H25      H      0.806170000000     0.860160000000     0.058060000000     0          
H26      H      0.730510000000     0.923630000000     0.049550000000     0          
H27      H      0.855080000000     0.803180000000     0.073490000000     0          
H28      H      0.803530000000     0.631100000000     0.005070000000     0          
H29      H      0.642000000000     0.801830000000     0.975150000000     0          
Zr1      Zr     0.092410000000     0.486870000000     0.984700000000     0          
O2       O      0.035600000000     0.449500000000     0.931700000000     0          
C3       C      0.180430000000     0.635270000000     0.986000000000     0          
C4       C      0.136480000000     0.600390000000     0.993750000000     0          
O5       O      0.094490000000     0.621660000000     0.006410000000     0          
O6       O      0.145030000000     0.552920000000     0.987350000000     0          
C7       C      0.366200000000     0.821800000000     0.963500000000     0          
C8       C      0.401540000000     0.865900000000     0.967200000000     0          
O9       O      0.379590000000     0.909770000000     0.968100000000     0          
O10      O      0.448840000000     0.856660000000     0.969150000000     0          
C11      C      0.258400000000     0.703300000000     0.973100000000     0          
C12      C      0.298500000000     0.742700000000     0.967500000000     0          
Cl13     Cl     0.205100000000     0.886800000000     0.016200000000     0          
Cl14     Cl     0.121900000000     0.792200000000     0.030200000000     0          
Co15     Co     0.204250000000     0.799500000000     0.002500000000     0          
C16      C      0.267200000000     0.651600000000     0.957900000000     0          
C17      C      0.226800000000     0.617900000000     0.963600000000     0          
C18      C      0.177400000000     0.684700000000     0.003000000000     0          
C19      C      0.345800000000     0.735000000000     0.945700000000     0          
C20      C      0.382700000000     0.774500000000     0.947200000000     0          
C21      C      0.316200000000     0.829300000000     0.981400000000     0          
N22      N      0.213800000000     0.718600000000     0.995500000000     0          
N23      N      0.278500000000     0.790100000000     0.984200000000     0          
H24      H      0.731310000000     0.064300000000     0.924480000000     0          
H25      H      0.306170000000     0.639840000000     0.941940000000     0          
H26      H      0.230510000000     0.576370000000     0.950450000000     0          
H27      H      0.355080000000     0.696820000000     0.926510000000     0          
H28      H      0.303530000000     0.868900000000     0.994930000000     0          
H29      H      0.142000000000     0.698170000000     0.024850000000     0          
Zr1      Zr     0.407590000000     0.513130000000     0.484700000000     0          
O2       O      0.464400000000     0.550500000000     0.431700000000     0          
C3       C      0.319570000000     0.364730000000     0.486000000000     0          
C4       C      0.363520000000     0.399610000000     0.493750000000     0          
O5       O      0.405510000000     0.378340000000     0.506410000000     0          
O6       O      0.354970000000     0.447080000000     0.487350000000     0          
C7       C      0.133800000000     0.178200000000     0.463500000000     0          
C8       C      0.098460000000     0.134100000000     0.467200000000     0          
O9       O      0.120410000000     0.090230000000     0.468100000000     0          
O10      O      0.051160000000     0.143340000000     0.469150000000     0          
C11      C      0.241600000000     0.296700000000     0.473100000000     0          
C12      C      0.201500000000     0.257300000000     0.467500000000     0          
Cl13     Cl     0.294900000000     0.113200000000     0.516200000000     0          
Cl14     Cl     0.378100000000     0.207800000000     0.530200000000     0          
Co15     Co     0.295750000000     0.200500000000     0.502500000000     0          
C16      C      0.232800000000     0.348400000000     0.457900000000     0          
C17      C      0.273200000000     0.382100000000     0.463600000000     0          
C18      C      0.322600000000     0.315300000000     0.503000000000     0          
C19      C      0.154200000000     0.265000000000     0.445700000000     0          
C20      C      0.117300000000     0.225500000000     0.447200000000     0          
C21      C      0.183800000000     0.170700000000     0.481400000000     0          
N22      N      0.286200000000     0.281400000000     0.495500000000     0          
N23      N      0.221500000000     0.209900000000     0.484200000000     0          
H24      H      0.768690000000     0.935700000000     0.424480000000     0          
H25      H      0.193830000000     0.360160000000     0.441940000000     0          
H26      H      0.269490000000     0.423630000000     0.450450000000     0          
H27      H      0.144920000000     0.303180000000     0.426510000000     0          
H28      H      0.196470000000     0.131100000000     0.494930000000     0          
H29      H      0.358000000000     0.301830000000     0.524850000000     0          
Zr1      Zr     0.907590000000     0.986870000000     0.515300000000     0          
O2       O      0.964400000000     0.949500000000     0.568300000000     0          
C3       C      0.819570000000     0.135270000000     0.514000000000     0          
C4       C      0.863520000000     0.100390000000     0.506250000000     0          
O5       O      0.905510000000     0.121660000000     0.493590000000     0          
O6       O      0.854970000000     0.052920000000     0.512650000000     0          
C7       C      0.633800000000     0.321800000000     0.536500000000     0          
C8       C      0.598460000000     0.365900000000     0.532800000000     0          
O9       O      0.620410000000     0.409770000000     0.531900000000     0          
O10      O      0.551160000000     0.356660000000     0.530850000000     0          
C11      C      0.741600000000     0.203300000000     0.526900000000     0          
C12      C      0.701500000000     0.242700000000     0.532500000000     0          
Cl13     Cl     0.794900000000     0.386800000000     0.483800000000     0          
Cl14     Cl     0.878100000000     0.292200000000     0.469800000000     0          
Co15     Co     0.795750000000     0.299500000000     0.497500000000     0          
C16      C      0.732800000000     0.151600000000     0.542100000000     0          
C17      C      0.773200000000     0.117900000000     0.536400000000     0          
C18      C      0.822600000000     0.184700000000     0.497000000000     0          
C19      C      0.654200000000     0.235000000000     0.554300000000     0          
C20      C      0.617300000000     0.274500000000     0.552800000000     0          
C21      C      0.683800000000     0.329300000000     0.518600000000     0          
N22      N      0.786200000000     0.218600000000     0.504500000000     0          
N23      N      0.721500000000     0.290100000000     0.515800000000     0          
H24      H      0.268690000000     0.564300000000     0.575520000000     0          
H25      H      0.693830000000     0.139840000000     0.558060000000     0          
H26      H      0.769490000000     0.076370000000     0.549550000000     0          
H27      H      0.644920000000     0.196820000000     0.573490000000     0          
H28      H      0.696470000000     0.368900000000     0.505070000000     0          
H29      H      0.858000000000     0.198170000000     0.475150000000     0          


