data_QURNEY

_audit_creation_method RASPA-1.0
_audit_creation_date 2020-11-2
_audit_author_name 'Rocio Bueno-Perez'

_cell_length_a    26.52
_cell_length_b    26.52
_cell_length_c    26.52
_cell_angle_alpha 90
_cell_angle_beta  90
_cell_angle_gamma 90
_cell_volume      18651.8

_symmetry_cell_setting          cubic
_symmetry_space_group_name_Hall 'P 1'
_symmetry_space_group_name_H-M  'P 1'
_symmetry_Int_Tables_number     1

_symmetry_equiv_pos_as_xyz 'x,y,z'

loop_
_atom_site_label
_atom_site_type_symbol
_atom_site_fract_x
_atom_site_fract_y
_atom_site_fract_z
_atom_site_charge
O1       O      0.426930000000     0.000000000000     0.133630000000     0          
C4       C      0.354700000000     0.000000000000     0.207600000000     0          
H1       H      0.389300000000     0.000000000000     0.217000000000     0          
N1       C      0.318790000000     0.000000000000     0.244220000000     0          
N1U      N      0.244220000000     0.000000000000     0.318790000000     0          
C1       C      0.381870000000     0.000000000000     0.118130000000     0          
C2       C      0.342120000000     0.000000000000     0.157880000000     0          
C3       C      0.270270000000     0.000000000000     0.229730000000     0          
Zr1      Zr     0.500000000000     0.000000000000     0.093200000000     0          
O2       O      0.446500000000     0.946500000000     0.053500000000     0          
O1       O      0.000000000000     0.426930000000     0.133630000000     0          
C4       C      0.000000000000     0.354700000000     0.207600000000     0          
H1       H      0.000000000000     0.389300000000     0.217000000000     0          
N1       C      0.000000000000     0.318790000000     0.244220000000     0          
N1U      N      0.000000000000     0.244220000000     0.318790000000     0          
C1       C      0.000000000000     0.381870000000     0.118130000000     0          
C2       C      0.000000000000     0.342120000000     0.157880000000     0          
C3       C      0.000000000000     0.270270000000     0.229730000000     0          
Zr1      Zr     0.000000000000     0.500000000000     0.093200000000     0          
O2       O      0.053500000000     0.446500000000     0.053500000000     0          
O1       O      0.573070000000     0.000000000000     0.133630000000     0          
C4       C      0.645300000000     0.000000000000     0.207600000000     0          
H1       H      0.610700000000     0.000000000000     0.217000000000     0          
N1       C      0.681210000000     0.000000000000     0.244220000000     0          
N1U      N      0.755780000000     0.000000000000     0.318790000000     0          
C1       C      0.618130000000     0.000000000000     0.118130000000     0          
C2       C      0.657880000000     0.000000000000     0.157880000000     0          
C3       C      0.729730000000     0.000000000000     0.229730000000     0          
O2       O      0.553500000000     0.053500000000     0.053500000000     0          
O1       O      0.000000000000     0.573070000000     0.133630000000     0          
C4       C      0.000000000000     0.645300000000     0.207600000000     0          
H1       H      0.000000000000     0.610700000000     0.217000000000     0          
N1       C      0.000000000000     0.681210000000     0.244220000000     0          
N1U      N      0.000000000000     0.755780000000     0.318790000000     0          
C1       C      0.000000000000     0.618130000000     0.118130000000     0          
C2       C      0.000000000000     0.657880000000     0.157880000000     0          
C3       C      0.000000000000     0.729730000000     0.229730000000     0          
O2       O      0.946500000000     0.553500000000     0.053500000000     0          
O1       O      0.426930000000     0.000000000000     0.866370000000     0          
C4       C      0.354700000000     0.000000000000     0.792400000000     0          
H1       H      0.389300000000     0.000000000000     0.783000000000     0          
N1       C      0.318790000000     0.000000000000     0.755780000000     0          
N1U      N      0.244220000000     0.000000000000     0.681210000000     0          
C1       C      0.381870000000     0.000000000000     0.881870000000     0          
C2       C      0.342120000000     0.000000000000     0.842120000000     0          
C3       C      0.270270000000     0.000000000000     0.770270000000     0          
Zr1      Zr     0.500000000000     0.000000000000     0.906800000000     0          
O2       O      0.446500000000     0.053500000000     0.946500000000     0          
O1       O      0.000000000000     0.426930000000     0.866370000000     0          
C4       C      0.000000000000     0.354700000000     0.792400000000     0          
H1       H      0.000000000000     0.389300000000     0.783000000000     0          
N1       C      0.000000000000     0.318790000000     0.755780000000     0          
N1U      N      0.000000000000     0.244220000000     0.681210000000     0          
C1       C      0.000000000000     0.381870000000     0.881870000000     0          
C2       C      0.000000000000     0.342120000000     0.842120000000     0          
C3       C      0.000000000000     0.270270000000     0.770270000000     0          
Zr1      Zr     0.000000000000     0.500000000000     0.906800000000     0          
O2       O      0.946500000000     0.446500000000     0.946500000000     0          
O1       O      0.573070000000     0.000000000000     0.866370000000     0          
C4       C      0.645300000000     0.000000000000     0.792400000000     0          
H1       H      0.610700000000     0.000000000000     0.783000000000     0          
N1       C      0.681210000000     0.000000000000     0.755780000000     0          
N1U      N      0.755780000000     0.000000000000     0.681210000000     0          
C1       C      0.618130000000     0.000000000000     0.881870000000     0          
C2       C      0.657880000000     0.000000000000     0.842120000000     0          
C3       C      0.729730000000     0.000000000000     0.770270000000     0          
O2       O      0.553500000000     0.946500000000     0.946500000000     0          
O1       O      0.000000000000     0.573070000000     0.866370000000     0          
C4       C      0.000000000000     0.645300000000     0.792400000000     0          
H1       H      0.000000000000     0.610700000000     0.783000000000     0          
N1       C      0.000000000000     0.681210000000     0.755780000000     0          
N1U      N      0.000000000000     0.755780000000     0.681210000000     0          
C1       C      0.000000000000     0.618130000000     0.881870000000     0          
C2       C      0.000000000000     0.657880000000     0.842120000000     0          
C3       C      0.000000000000     0.729730000000     0.770270000000     0          
O2       O      0.053500000000     0.553500000000     0.946500000000     0          
O1       O      0.133630000000     0.426930000000     0.000000000000     0          
C4       C      0.207600000000     0.354700000000     0.000000000000     0          
H1       H      0.217000000000     0.389300000000     0.000000000000     0          
N1       C      0.244220000000     0.318790000000     0.000000000000     0          
N1U      N      0.318790000000     0.244220000000     0.000000000000     0          
C1       C      0.118130000000     0.381870000000     0.000000000000     0          
C2       C      0.157880000000     0.342120000000     0.000000000000     0          
C3       C      0.229730000000     0.270270000000     0.000000000000     0          
Zr1      Zr     0.093200000000     0.500000000000     0.000000000000     0          
O2       O      0.053500000000     0.446500000000     0.946500000000     0          
O1       O      0.573070000000     0.133630000000     0.000000000000     0          
C4       C      0.645300000000     0.207600000000     0.000000000000     0          
H1       H      0.610700000000     0.217000000000     0.000000000000     0          
N1       C      0.681210000000     0.244220000000     0.000000000000     0          
N1U      N      0.755780000000     0.318790000000     0.000000000000     0          
C1       C      0.618130000000     0.118130000000     0.000000000000     0          
C2       C      0.657880000000     0.157880000000     0.000000000000     0          
C3       C      0.729730000000     0.229730000000     0.000000000000     0          
Zr1      Zr     0.500000000000     0.093200000000     0.000000000000     0          
O2       O      0.553500000000     0.053500000000     0.946500000000     0          
O1       O      0.866370000000     0.573070000000     0.000000000000     0          
C4       C      0.792400000000     0.645300000000     0.000000000000     0          
H1       H      0.783000000000     0.610700000000     0.000000000000     0          
N1       C      0.755780000000     0.681210000000     0.000000000000     0          
N1U      N      0.681210000000     0.755780000000     0.000000000000     0          
C1       C      0.881870000000     0.618130000000     0.000000000000     0          
C2       C      0.842120000000     0.657880000000     0.000000000000     0          
C3       C      0.770270000000     0.729730000000     0.000000000000     0          
Zr1      Zr     0.906800000000     0.500000000000     0.000000000000     0          
O2       O      0.946500000000     0.553500000000     0.946500000000     0          
O1       O      0.426930000000     0.866370000000     0.000000000000     0          
C4       C      0.354700000000     0.792400000000     0.000000000000     0          
H1       H      0.389300000000     0.783000000000     0.000000000000     0          
N1       C      0.318790000000     0.755780000000     0.000000000000     0          
N1U      N      0.244220000000     0.681210000000     0.000000000000     0          
C1       C      0.381870000000     0.881870000000     0.000000000000     0          
C2       C      0.342120000000     0.842120000000     0.000000000000     0          
C3       C      0.270270000000     0.770270000000     0.000000000000     0          
Zr1      Zr     0.500000000000     0.906800000000     0.000000000000     0          
O2       O      0.446500000000     0.946500000000     0.946500000000     0          
O1       O      0.133630000000     0.573070000000     0.000000000000     0          
C4       C      0.207600000000     0.645300000000     0.000000000000     0          
H1       H      0.217000000000     0.610700000000     0.000000000000     0          
C1       C      0.118130000000     0.618130000000     0.000000000000     0          
C2       C      0.157880000000     0.657880000000     0.000000000000     0          
C3       C      0.229730000000     0.729730000000     0.000000000000     0          
O2       O      0.053500000000     0.553500000000     0.053500000000     0          
O1       O      0.426930000000     0.133630000000     0.000000000000     0          
C4       C      0.354700000000     0.207600000000     0.000000000000     0          
H1       H      0.389300000000     0.217000000000     0.000000000000     0          
C1       C      0.381870000000     0.118130000000     0.000000000000     0          
C2       C      0.342120000000     0.157880000000     0.000000000000     0          
C3       C      0.270270000000     0.229730000000     0.000000000000     0          
O2       O      0.446500000000     0.053500000000     0.053500000000     0          
O1       O      0.866370000000     0.426930000000     0.000000000000     0          
C4       C      0.792400000000     0.354700000000     0.000000000000     0          
H1       H      0.783000000000     0.389300000000     0.000000000000     0          
C1       C      0.881870000000     0.381870000000     0.000000000000     0          
C2       C      0.842120000000     0.342120000000     0.000000000000     0          
C3       C      0.770270000000     0.270270000000     0.000000000000     0          
O2       O      0.946500000000     0.446500000000     0.053500000000     0          
O1       O      0.573070000000     0.866370000000     0.000000000000     0          
C4       C      0.645300000000     0.792400000000     0.000000000000     0          
H1       H      0.610700000000     0.783000000000     0.000000000000     0          
C1       C      0.618130000000     0.881870000000     0.000000000000     0          
C2       C      0.657880000000     0.842120000000     0.000000000000     0          
C3       C      0.729730000000     0.770270000000     0.000000000000     0          
O2       O      0.553500000000     0.946500000000     0.053500000000     0          
O1       O      0.000000000000     0.133630000000     0.426930000000     0          
C4       C      0.000000000000     0.207600000000     0.354700000000     0          
H1       H      0.000000000000     0.217000000000     0.389300000000     0          
C1       C      0.000000000000     0.118130000000     0.381870000000     0          
C2       C      0.000000000000     0.157880000000     0.342120000000     0          
C3       C      0.000000000000     0.229730000000     0.270270000000     0          
Zr1      Zr     0.000000000000     0.093200000000     0.500000000000     0          
O2       O      0.946500000000     0.053500000000     0.446500000000     0          
O1       O      0.000000000000     0.866370000000     0.573070000000     0          
C4       C      0.000000000000     0.792400000000     0.645300000000     0          
H1       H      0.000000000000     0.783000000000     0.610700000000     0          
C1       C      0.000000000000     0.881870000000     0.618130000000     0          
C2       C      0.000000000000     0.842120000000     0.657880000000     0          
C3       C      0.000000000000     0.770270000000     0.729730000000     0          
Zr1      Zr     0.000000000000     0.906800000000     0.500000000000     0          
O2       O      0.946500000000     0.946500000000     0.553500000000     0          
O1       O      0.133630000000     0.000000000000     0.573070000000     0          
C4       C      0.207600000000     0.000000000000     0.645300000000     0          
H1       H      0.217000000000     0.000000000000     0.610700000000     0          
C1       C      0.118130000000     0.000000000000     0.618130000000     0          
C2       C      0.157880000000     0.000000000000     0.657880000000     0          
C3       C      0.229730000000     0.000000000000     0.729730000000     0          
Zr1      Zr     0.093200000000     0.000000000000     0.500000000000     0          
O2       O      0.053500000000     0.946500000000     0.553500000000     0          
O1       O      0.000000000000     0.133630000000     0.573070000000     0          
C4       C      0.000000000000     0.207600000000     0.645300000000     0          
H1       H      0.000000000000     0.217000000000     0.610700000000     0          
C1       C      0.000000000000     0.118130000000     0.618130000000     0          
C2       C      0.000000000000     0.157880000000     0.657880000000     0          
C3       C      0.000000000000     0.229730000000     0.729730000000     0          
O2       O      0.053500000000     0.053500000000     0.553500000000     0          
O1       O      0.866370000000     0.000000000000     0.573070000000     0          
C4       C      0.792400000000     0.000000000000     0.645300000000     0          
H1       H      0.783000000000     0.000000000000     0.610700000000     0          
C1       C      0.881870000000     0.000000000000     0.618130000000     0          
C2       C      0.842120000000     0.000000000000     0.657880000000     0          
C3       C      0.770270000000     0.000000000000     0.729730000000     0          
Zr1      Zr     0.906800000000     0.000000000000     0.500000000000     0          
O2       O      0.946500000000     0.053500000000     0.553500000000     0          
O1       O      0.000000000000     0.866370000000     0.426930000000     0          
C4       C      0.000000000000     0.792400000000     0.354700000000     0          
H1       H      0.000000000000     0.783000000000     0.389300000000     0          
C1       C      0.000000000000     0.881870000000     0.381870000000     0          
C2       C      0.000000000000     0.842120000000     0.342120000000     0          
C3       C      0.000000000000     0.770270000000     0.270270000000     0          
O2       O      0.053500000000     0.946500000000     0.446500000000     0          
O1       O      0.133630000000     0.000000000000     0.426930000000     0          
C4       C      0.207600000000     0.000000000000     0.354700000000     0          
H1       H      0.217000000000     0.000000000000     0.389300000000     0          
C1       C      0.118130000000     0.000000000000     0.381870000000     0          
C2       C      0.157880000000     0.000000000000     0.342120000000     0          
C3       C      0.229730000000     0.000000000000     0.270270000000     0          
O2       O      0.053500000000     0.053500000000     0.446500000000     0          
O1       O      0.866370000000     0.000000000000     0.426930000000     0          
C4       C      0.792400000000     0.000000000000     0.354700000000     0          
H1       H      0.783000000000     0.000000000000     0.389300000000     0          
C1       C      0.881870000000     0.000000000000     0.381870000000     0          
C2       C      0.842120000000     0.000000000000     0.342120000000     0          
C3       C      0.770270000000     0.000000000000     0.270270000000     0          
O2       O      0.946500000000     0.946500000000     0.446500000000     0          
O1       O      0.426930000000     0.500000000000     0.633630000000     0          
C4       C      0.354700000000     0.500000000000     0.707600000000     0          
H1       H      0.389300000000     0.500000000000     0.717000000000     0          
N1       C      0.318790000000     0.500000000000     0.744220000000     0          
N1U      N      0.244220000000     0.500000000000     0.818790000000     0          
C1       C      0.381870000000     0.500000000000     0.618130000000     0          
C2       C      0.342120000000     0.500000000000     0.657880000000     0          
C3       C      0.270270000000     0.500000000000     0.729730000000     0          
Zr1      Zr     0.500000000000     0.500000000000     0.593200000000     0          
O2       O      0.446500000000     0.446500000000     0.553500000000     0          
O1       O      0.000000000000     0.926930000000     0.633630000000     0          
C4       C      0.000000000000     0.854700000000     0.707600000000     0          
H1       H      0.000000000000     0.889300000000     0.717000000000     0          
N1       C      0.000000000000     0.818790000000     0.744220000000     0          
N1U      N      0.000000000000     0.744220000000     0.818790000000     0          
Zr1      Zr     0.000000000000     0.000000000000     0.593200000000     0          
O1       O      0.573070000000     0.500000000000     0.633630000000     0          
C4       C      0.645300000000     0.500000000000     0.707600000000     0          
H1       H      0.610700000000     0.500000000000     0.717000000000     0          
N1       C      0.681210000000     0.500000000000     0.744220000000     0          
N1U      N      0.755780000000     0.500000000000     0.818790000000     0          
C1       C      0.618130000000     0.500000000000     0.618130000000     0          
C2       C      0.657880000000     0.500000000000     0.657880000000     0          
C3       C      0.729730000000     0.500000000000     0.729730000000     0          
O2       O      0.553500000000     0.553500000000     0.553500000000     0          
O1       O      0.000000000000     0.073070000000     0.633630000000     0          
C4       C      0.000000000000     0.145300000000     0.707600000000     0          
H1       H      0.000000000000     0.110700000000     0.717000000000     0          
N1       C      0.000000000000     0.181210000000     0.744220000000     0          
N1U      N      0.000000000000     0.255780000000     0.818790000000     0          
O1       O      0.426930000000     0.500000000000     0.366370000000     0          
C4       C      0.354700000000     0.500000000000     0.292400000000     0          
H1       H      0.389300000000     0.500000000000     0.283000000000     0          
N1       C      0.318790000000     0.500000000000     0.255780000000     0          
N1U      N      0.244220000000     0.500000000000     0.181210000000     0          
C1       C      0.381870000000     0.500000000000     0.381870000000     0          
C2       C      0.342120000000     0.500000000000     0.342120000000     0          
C3       C      0.270270000000     0.500000000000     0.270270000000     0          
Zr1      Zr     0.500000000000     0.500000000000     0.406800000000     0          
O2       O      0.446500000000     0.553500000000     0.446500000000     0          
O1       O      0.000000000000     0.926930000000     0.366370000000     0          
C4       C      0.000000000000     0.854700000000     0.292400000000     0          
H1       H      0.000000000000     0.889300000000     0.283000000000     0          
N1       C      0.000000000000     0.818790000000     0.255780000000     0          
N1U      N      0.000000000000     0.744220000000     0.181210000000     0          
Zr1      Zr     0.000000000000     0.000000000000     0.406800000000     0          
O1       O      0.573070000000     0.500000000000     0.366370000000     0          
C4       C      0.645300000000     0.500000000000     0.292400000000     0          
H1       H      0.610700000000     0.500000000000     0.283000000000     0          
N1       C      0.681210000000     0.500000000000     0.255780000000     0          
N1U      N      0.755780000000     0.500000000000     0.181210000000     0          
C1       C      0.618130000000     0.500000000000     0.381870000000     0          
C2       C      0.657880000000     0.500000000000     0.342120000000     0          
C3       C      0.729730000000     0.500000000000     0.270270000000     0          
O2       O      0.553500000000     0.446500000000     0.446500000000     0          
O1       O      0.000000000000     0.073070000000     0.366370000000     0          
C4       C      0.000000000000     0.145300000000     0.292400000000     0          
H1       H      0.000000000000     0.110700000000     0.283000000000     0          
N1       C      0.000000000000     0.181210000000     0.255780000000     0          
N1U      N      0.000000000000     0.255780000000     0.181210000000     0          
O1       O      0.133630000000     0.926930000000     0.500000000000     0          
C4       C      0.207600000000     0.854700000000     0.500000000000     0          
H1       H      0.217000000000     0.889300000000     0.500000000000     0          
N1       C      0.244220000000     0.818790000000     0.500000000000     0          
N1U      N      0.318790000000     0.744220000000     0.500000000000     0          
C1       C      0.118130000000     0.881870000000     0.500000000000     0          
C2       C      0.157880000000     0.842120000000     0.500000000000     0          
C3       C      0.229730000000     0.770270000000     0.500000000000     0          
O1       O      0.573070000000     0.633630000000     0.500000000000     0          
C4       C      0.645300000000     0.707600000000     0.500000000000     0          
H1       H      0.610700000000     0.717000000000     0.500000000000     0          
N1       C      0.681210000000     0.744220000000     0.500000000000     0          
N1U      N      0.755780000000     0.818790000000     0.500000000000     0          
C1       C      0.618130000000     0.618130000000     0.500000000000     0          
C2       C      0.657880000000     0.657880000000     0.500000000000     0          
C3       C      0.729730000000     0.729730000000     0.500000000000     0          
Zr1      Zr     0.500000000000     0.593200000000     0.500000000000     0          
O2       O      0.553500000000     0.553500000000     0.446500000000     0          
O1       O      0.866370000000     0.073070000000     0.500000000000     0          
C4       C      0.792400000000     0.145300000000     0.500000000000     0          
H1       H      0.783000000000     0.110700000000     0.500000000000     0          
N1       C      0.755780000000     0.181210000000     0.500000000000     0          
N1U      N      0.681210000000     0.255780000000     0.500000000000     0          
C1       C      0.881870000000     0.118130000000     0.500000000000     0          
C2       C      0.842120000000     0.157880000000     0.500000000000     0          
C3       C      0.770270000000     0.229730000000     0.500000000000     0          
O1       O      0.426930000000     0.366370000000     0.500000000000     0          
C4       C      0.354700000000     0.292400000000     0.500000000000     0          
H1       H      0.389300000000     0.283000000000     0.500000000000     0          
N1       C      0.318790000000     0.255780000000     0.500000000000     0          
N1U      N      0.244220000000     0.181210000000     0.500000000000     0          
C1       C      0.381870000000     0.381870000000     0.500000000000     0          
C2       C      0.342120000000     0.342120000000     0.500000000000     0          
C3       C      0.270270000000     0.270270000000     0.500000000000     0          
Zr1      Zr     0.500000000000     0.406800000000     0.500000000000     0          
O2       O      0.446500000000     0.446500000000     0.446500000000     0          
O1       O      0.133630000000     0.073070000000     0.500000000000     0          
C4       C      0.207600000000     0.145300000000     0.500000000000     0          
H1       H      0.217000000000     0.110700000000     0.500000000000     0          
C1       C      0.118130000000     0.118130000000     0.500000000000     0          
C2       C      0.157880000000     0.157880000000     0.500000000000     0          
C3       C      0.229730000000     0.229730000000     0.500000000000     0          
O1       O      0.426930000000     0.633630000000     0.500000000000     0          
C4       C      0.354700000000     0.707600000000     0.500000000000     0          
H1       H      0.389300000000     0.717000000000     0.500000000000     0          
C1       C      0.381870000000     0.618130000000     0.500000000000     0          
C2       C      0.342120000000     0.657880000000     0.500000000000     0          
C3       C      0.270270000000     0.729730000000     0.500000000000     0          
O2       O      0.446500000000     0.553500000000     0.553500000000     0          
O1       O      0.866370000000     0.926930000000     0.500000000000     0          
C4       C      0.792400000000     0.854700000000     0.500000000000     0          
H1       H      0.783000000000     0.889300000000     0.500000000000     0          
C1       C      0.881870000000     0.881870000000     0.500000000000     0          
C2       C      0.842120000000     0.842120000000     0.500000000000     0          
C3       C      0.770270000000     0.770270000000     0.500000000000     0          
O1       O      0.573070000000     0.366370000000     0.500000000000     0          
C4       C      0.645300000000     0.292400000000     0.500000000000     0          
H1       H      0.610700000000     0.283000000000     0.500000000000     0          
C1       C      0.618130000000     0.381870000000     0.500000000000     0          
C2       C      0.657880000000     0.342120000000     0.500000000000     0          
C3       C      0.729730000000     0.270270000000     0.500000000000     0          
O2       O      0.553500000000     0.446500000000     0.553500000000     0          
O1       O      0.000000000000     0.633630000000     0.926930000000     0          
C4       C      0.000000000000     0.707600000000     0.854700000000     0          
H1       H      0.000000000000     0.717000000000     0.889300000000     0          
Zr1      Zr     0.000000000000     0.593200000000     0.000000000000     0          
O1       O      0.000000000000     0.366370000000     0.073070000000     0          
C4       C      0.000000000000     0.292400000000     0.145300000000     0          
H1       H      0.000000000000     0.283000000000     0.110700000000     0          
Zr1      Zr     0.000000000000     0.406800000000     0.000000000000     0          
O1       O      0.133630000000     0.500000000000     0.073070000000     0          
C4       C      0.207600000000     0.500000000000     0.145300000000     0          
H1       H      0.217000000000     0.500000000000     0.110700000000     0          
C1       C      0.118130000000     0.500000000000     0.118130000000     0          
C2       C      0.157880000000     0.500000000000     0.157880000000     0          
C3       C      0.229730000000     0.500000000000     0.229730000000     0          
O1       O      0.000000000000     0.633630000000     0.073070000000     0          
C4       C      0.000000000000     0.707600000000     0.145300000000     0          
H1       H      0.000000000000     0.717000000000     0.110700000000     0          
O1       O      0.866370000000     0.500000000000     0.073070000000     0          
C4       C      0.792400000000     0.500000000000     0.145300000000     0          
H1       H      0.783000000000     0.500000000000     0.110700000000     0          
C1       C      0.881870000000     0.500000000000     0.118130000000     0          
C2       C      0.842120000000     0.500000000000     0.157880000000     0          
C3       C      0.770270000000     0.500000000000     0.229730000000     0          
O1       O      0.000000000000     0.366370000000     0.926930000000     0          
C4       C      0.000000000000     0.292400000000     0.854700000000     0          
H1       H      0.000000000000     0.283000000000     0.889300000000     0          
O1       O      0.133630000000     0.500000000000     0.926930000000     0          
C4       C      0.207600000000     0.500000000000     0.854700000000     0          
H1       H      0.217000000000     0.500000000000     0.889300000000     0          
C1       C      0.118130000000     0.500000000000     0.881870000000     0          
C2       C      0.157880000000     0.500000000000     0.842120000000     0          
C3       C      0.229730000000     0.500000000000     0.770270000000     0          
O1       O      0.866370000000     0.500000000000     0.926930000000     0          
C4       C      0.792400000000     0.500000000000     0.854700000000     0          
H1       H      0.783000000000     0.500000000000     0.889300000000     0          
C1       C      0.881870000000     0.500000000000     0.881870000000     0          
C2       C      0.842120000000     0.500000000000     0.842120000000     0          
C3       C      0.770270000000     0.500000000000     0.770270000000     0          
O1       O      0.926930000000     0.000000000000     0.633630000000     0          
C4       C      0.854700000000     0.000000000000     0.707600000000     0          
H1       H      0.889300000000     0.000000000000     0.717000000000     0          
N1       C      0.818790000000     0.000000000000     0.744220000000     0          
N1U      N      0.744220000000     0.000000000000     0.818790000000     0          
O1       O      0.500000000000     0.426930000000     0.633630000000     0          
C4       C      0.500000000000     0.354700000000     0.707600000000     0          
H1       H      0.500000000000     0.389300000000     0.717000000000     0          
N1       C      0.500000000000     0.318790000000     0.744220000000     0          
N1U      N      0.500000000000     0.244220000000     0.818790000000     0          
C1       C      0.500000000000     0.381870000000     0.618130000000     0          
C2       C      0.500000000000     0.342120000000     0.657880000000     0          
C3       C      0.500000000000     0.270270000000     0.729730000000     0          
O1       O      0.073070000000     0.000000000000     0.633630000000     0          
C4       C      0.145300000000     0.000000000000     0.707600000000     0          
H1       H      0.110700000000     0.000000000000     0.717000000000     0          
N1       C      0.181210000000     0.000000000000     0.744220000000     0          
N1U      N      0.255780000000     0.000000000000     0.818790000000     0          
O1       O      0.500000000000     0.573070000000     0.633630000000     0          
C4       C      0.500000000000     0.645300000000     0.707600000000     0          
H1       H      0.500000000000     0.610700000000     0.717000000000     0          
N1       C      0.500000000000     0.681210000000     0.744220000000     0          
N1U      N      0.500000000000     0.755780000000     0.818790000000     0          
C1       C      0.500000000000     0.618130000000     0.618130000000     0          
C2       C      0.500000000000     0.657880000000     0.657880000000     0          
C3       C      0.500000000000     0.729730000000     0.729730000000     0          
O1       O      0.926930000000     0.000000000000     0.366370000000     0          
C4       C      0.854700000000     0.000000000000     0.292400000000     0          
H1       H      0.889300000000     0.000000000000     0.283000000000     0          
N1       C      0.818790000000     0.000000000000     0.255780000000     0          
N1U      N      0.744220000000     0.000000000000     0.181210000000     0          
O1       O      0.500000000000     0.426930000000     0.366370000000     0          
C4       C      0.500000000000     0.354700000000     0.292400000000     0          
H1       H      0.500000000000     0.389300000000     0.283000000000     0          
N1       C      0.500000000000     0.318790000000     0.255780000000     0          
N1U      N      0.500000000000     0.244220000000     0.181210000000     0          
C1       C      0.500000000000     0.381870000000     0.381870000000     0          
C2       C      0.500000000000     0.342120000000     0.342120000000     0          
C3       C      0.500000000000     0.270270000000     0.270270000000     0          
O1       O      0.073070000000     0.000000000000     0.366370000000     0          
C4       C      0.145300000000     0.000000000000     0.292400000000     0          
H1       H      0.110700000000     0.000000000000     0.283000000000     0          
N1       C      0.181210000000     0.000000000000     0.255780000000     0          
N1U      N      0.255780000000     0.000000000000     0.181210000000     0          
O1       O      0.500000000000     0.573070000000     0.366370000000     0          
C4       C      0.500000000000     0.645300000000     0.292400000000     0          
H1       H      0.500000000000     0.610700000000     0.283000000000     0          
N1       C      0.500000000000     0.681210000000     0.255780000000     0          
N1U      N      0.500000000000     0.755780000000     0.181210000000     0          
C1       C      0.500000000000     0.618130000000     0.381870000000     0          
C2       C      0.500000000000     0.657880000000     0.342120000000     0          
C3       C      0.500000000000     0.729730000000     0.270270000000     0          
O1       O      0.633630000000     0.426930000000     0.500000000000     0          
C4       C      0.707600000000     0.354700000000     0.500000000000     0          
H1       H      0.717000000000     0.389300000000     0.500000000000     0          
N1       C      0.744220000000     0.318790000000     0.500000000000     0          
N1U      N      0.818790000000     0.244220000000     0.500000000000     0          
Zr1      Zr     0.593200000000     0.500000000000     0.500000000000     0          
O1       O      0.073070000000     0.133630000000     0.500000000000     0          
C4       C      0.145300000000     0.207600000000     0.500000000000     0          
H1       H      0.110700000000     0.217000000000     0.500000000000     0          
N1       C      0.181210000000     0.244220000000     0.500000000000     0          
N1U      N      0.255780000000     0.318790000000     0.500000000000     0          
O1       O      0.366370000000     0.573070000000     0.500000000000     0          
C4       C      0.292400000000     0.645300000000     0.500000000000     0          
H1       H      0.283000000000     0.610700000000     0.500000000000     0          
N1       C      0.255780000000     0.681210000000     0.500000000000     0          
N1U      N      0.181210000000     0.755780000000     0.500000000000     0          
Zr1      Zr     0.406800000000     0.500000000000     0.500000000000     0          
O1       O      0.926930000000     0.866370000000     0.500000000000     0          
C4       C      0.854700000000     0.792400000000     0.500000000000     0          
H1       H      0.889300000000     0.783000000000     0.500000000000     0          
N1       C      0.818790000000     0.755780000000     0.500000000000     0          
N1U      N      0.744220000000     0.681210000000     0.500000000000     0          
O1       O      0.633630000000     0.573070000000     0.500000000000     0          
C4       C      0.707600000000     0.645300000000     0.500000000000     0          
H1       H      0.717000000000     0.610700000000     0.500000000000     0          
O1       O      0.926930000000     0.133630000000     0.500000000000     0          
C4       C      0.854700000000     0.207600000000     0.500000000000     0          
H1       H      0.889300000000     0.217000000000     0.500000000000     0          
O1       O      0.366370000000     0.426930000000     0.500000000000     0          
C4       C      0.292400000000     0.354700000000     0.500000000000     0          
H1       H      0.283000000000     0.389300000000     0.500000000000     0          
O1       O      0.073070000000     0.866370000000     0.500000000000     0          
C4       C      0.145300000000     0.792400000000     0.500000000000     0          
H1       H      0.110700000000     0.783000000000     0.500000000000     0          
O1       O      0.500000000000     0.133630000000     0.926930000000     0          
C4       C      0.500000000000     0.207600000000     0.854700000000     0          
H1       H      0.500000000000     0.217000000000     0.889300000000     0          
C1       C      0.500000000000     0.118130000000     0.881870000000     0          
C2       C      0.500000000000     0.157880000000     0.842120000000     0          
C3       C      0.500000000000     0.229730000000     0.770270000000     0          
O1       O      0.500000000000     0.866370000000     0.073070000000     0          
C4       C      0.500000000000     0.792400000000     0.145300000000     0          
H1       H      0.500000000000     0.783000000000     0.110700000000     0          
C1       C      0.500000000000     0.881870000000     0.118130000000     0          
C2       C      0.500000000000     0.842120000000     0.157880000000     0          
C3       C      0.500000000000     0.770270000000     0.229730000000     0          
O1       O      0.633630000000     0.000000000000     0.073070000000     0          
C4       C      0.707600000000     0.000000000000     0.145300000000     0          
H1       H      0.717000000000     0.000000000000     0.110700000000     0          
Zr1      Zr     0.593200000000     0.000000000000     0.000000000000     0          
O1       O      0.500000000000     0.133630000000     0.073070000000     0          
C4       C      0.500000000000     0.207600000000     0.145300000000     0          
H1       H      0.500000000000     0.217000000000     0.110700000000     0          
C1       C      0.500000000000     0.118130000000     0.118130000000     0          
C2       C      0.500000000000     0.157880000000     0.157880000000     0          
C3       C      0.500000000000     0.229730000000     0.229730000000     0          
O1       O      0.366370000000     0.000000000000     0.073070000000     0          
C4       C      0.292400000000     0.000000000000     0.145300000000     0          
H1       H      0.283000000000     0.000000000000     0.110700000000     0          
Zr1      Zr     0.406800000000     0.000000000000     0.000000000000     0          
O1       O      0.500000000000     0.866370000000     0.926930000000     0          
C4       C      0.500000000000     0.792400000000     0.854700000000     0          
H1       H      0.500000000000     0.783000000000     0.889300000000     0          
C1       C      0.500000000000     0.881870000000     0.881870000000     0          
C2       C      0.500000000000     0.842120000000     0.842120000000     0          
C3       C      0.500000000000     0.770270000000     0.770270000000     0          
O1       O      0.633630000000     0.000000000000     0.926930000000     0          
C4       C      0.707600000000     0.000000000000     0.854700000000     0          
H1       H      0.717000000000     0.000000000000     0.889300000000     0          
O1       O      0.366370000000     0.000000000000     0.926930000000     0          
C4       C      0.292400000000     0.000000000000     0.854700000000     0          
H1       H      0.283000000000     0.000000000000     0.889300000000     0          
O1       O      0.926930000000     0.500000000000     0.133630000000     0          
C4       C      0.854700000000     0.500000000000     0.207600000000     0          
H1       H      0.889300000000     0.500000000000     0.217000000000     0          
N1       C      0.818790000000     0.500000000000     0.244220000000     0          
N1U      N      0.744220000000     0.500000000000     0.318790000000     0          
O1       O      0.500000000000     0.926930000000     0.133630000000     0          
C4       C      0.500000000000     0.854700000000     0.207600000000     0          
H1       H      0.500000000000     0.889300000000     0.217000000000     0          
N1       C      0.500000000000     0.818790000000     0.244220000000     0          
N1U      N      0.500000000000     0.744220000000     0.318790000000     0          
O1       O      0.073070000000     0.500000000000     0.133630000000     0          
C4       C      0.145300000000     0.500000000000     0.207600000000     0          
H1       H      0.110700000000     0.500000000000     0.217000000000     0          
N1       C      0.181210000000     0.500000000000     0.244220000000     0          
N1U      N      0.255780000000     0.500000000000     0.318790000000     0          
O1       O      0.500000000000     0.073070000000     0.133630000000     0          
C4       C      0.500000000000     0.145300000000     0.207600000000     0          
H1       H      0.500000000000     0.110700000000     0.217000000000     0          
N1       C      0.500000000000     0.181210000000     0.244220000000     0          
N1U      N      0.500000000000     0.255780000000     0.318790000000     0          
O1       O      0.926930000000     0.500000000000     0.866370000000     0          
C4       C      0.854700000000     0.500000000000     0.792400000000     0          
H1       H      0.889300000000     0.500000000000     0.783000000000     0          
N1       C      0.818790000000     0.500000000000     0.755780000000     0          
N1U      N      0.744220000000     0.500000000000     0.681210000000     0          
O1       O      0.500000000000     0.926930000000     0.866370000000     0          
C4       C      0.500000000000     0.854700000000     0.792400000000     0          
H1       H      0.500000000000     0.889300000000     0.783000000000     0          
N1       C      0.500000000000     0.818790000000     0.755780000000     0          
N1U      N      0.500000000000     0.744220000000     0.681210000000     0          
O1       O      0.073070000000     0.500000000000     0.866370000000     0          
C4       C      0.145300000000     0.500000000000     0.792400000000     0          
H1       H      0.110700000000     0.500000000000     0.783000000000     0          
N1       C      0.181210000000     0.500000000000     0.755780000000     0          
N1U      N      0.255780000000     0.500000000000     0.681210000000     0          
O1       O      0.500000000000     0.073070000000     0.866370000000     0          
C4       C      0.500000000000     0.145300000000     0.792400000000     0          
H1       H      0.500000000000     0.110700000000     0.783000000000     0          
N1       C      0.500000000000     0.181210000000     0.755780000000     0          
N1U      N      0.500000000000     0.255780000000     0.681210000000     0          
O1       O      0.633630000000     0.926930000000     0.000000000000     0          
C4       C      0.707600000000     0.854700000000     0.000000000000     0          
H1       H      0.717000000000     0.889300000000     0.000000000000     0          
N1       C      0.744220000000     0.818790000000     0.000000000000     0          
N1U      N      0.818790000000     0.744220000000     0.000000000000     0          
O1       O      0.073070000000     0.633630000000     0.000000000000     0          
C4       C      0.145300000000     0.707600000000     0.000000000000     0          
H1       H      0.110700000000     0.717000000000     0.000000000000     0          
N1       C      0.181210000000     0.744220000000     0.000000000000     0          
N1U      N      0.255780000000     0.818790000000     0.000000000000     0          
O1       O      0.366370000000     0.073070000000     0.000000000000     0          
C4       C      0.292400000000     0.145300000000     0.000000000000     0          
H1       H      0.283000000000     0.110700000000     0.000000000000     0          
N1       C      0.255780000000     0.181210000000     0.000000000000     0          
N1U      N      0.181210000000     0.255780000000     0.000000000000     0          
O1       O      0.926930000000     0.366370000000     0.000000000000     0          
C4       C      0.854700000000     0.292400000000     0.000000000000     0          
H1       H      0.889300000000     0.283000000000     0.000000000000     0          
N1       C      0.818790000000     0.255780000000     0.000000000000     0          
N1U      N      0.744220000000     0.181210000000     0.000000000000     0          
O1       O      0.633630000000     0.073070000000     0.000000000000     0          
C4       C      0.707600000000     0.145300000000     0.000000000000     0          
H1       H      0.717000000000     0.110700000000     0.000000000000     0          
O1       O      0.926930000000     0.633630000000     0.000000000000     0          
C4       C      0.854700000000     0.707600000000     0.000000000000     0          
H1       H      0.889300000000     0.717000000000     0.000000000000     0          
O1       O      0.366370000000     0.926930000000     0.000000000000     0          
C4       C      0.292400000000     0.854700000000     0.000000000000     0          
H1       H      0.283000000000     0.889300000000     0.000000000000     0          
O1       O      0.073070000000     0.366370000000     0.000000000000     0          
C4       C      0.145300000000     0.292400000000     0.000000000000     0          
H1       H      0.110700000000     0.283000000000     0.000000000000     0          
O1       O      0.500000000000     0.633630000000     0.426930000000     0          
C4       C      0.500000000000     0.707600000000     0.354700000000     0          
H1       H      0.500000000000     0.717000000000     0.389300000000     0          
O1       O      0.500000000000     0.366370000000     0.573070000000     0          
C4       C      0.500000000000     0.292400000000     0.645300000000     0          
H1       H      0.500000000000     0.283000000000     0.610700000000     0          
O1       O      0.633630000000     0.500000000000     0.573070000000     0          
C4       C      0.707600000000     0.500000000000     0.645300000000     0          
H1       H      0.717000000000     0.500000000000     0.610700000000     0          
O1       O      0.500000000000     0.633630000000     0.573070000000     0          
C4       C      0.500000000000     0.707600000000     0.645300000000     0          
H1       H      0.500000000000     0.717000000000     0.610700000000     0          
O1       O      0.366370000000     0.500000000000     0.573070000000     0          
C4       C      0.292400000000     0.500000000000     0.645300000000     0          
H1       H      0.283000000000     0.500000000000     0.610700000000     0          
O1       O      0.500000000000     0.366370000000     0.426930000000     0          
C4       C      0.500000000000     0.292400000000     0.354700000000     0          
H1       H      0.500000000000     0.283000000000     0.389300000000     0          
O1       O      0.633630000000     0.500000000000     0.426930000000     0          
C4       C      0.707600000000     0.500000000000     0.354700000000     0          
H1       H      0.717000000000     0.500000000000     0.389300000000     0          
O1       O      0.366370000000     0.500000000000     0.426930000000     0          
C4       C      0.292400000000     0.500000000000     0.354700000000     0          
H1       H      0.283000000000     0.500000000000     0.389300000000     0          


