data_QURNUO

_audit_creation_method RASPA-1.0
_audit_creation_date 2020-11-2
_audit_author_name 'Rocio Bueno-Perez'

_cell_length_a    26.0205
_cell_length_b    26.0205
_cell_length_c    26.0205
_cell_angle_alpha 90
_cell_angle_beta  90
_cell_angle_gamma 90
_cell_volume      17617.6

_symmetry_cell_setting          cubic
_symmetry_space_group_name_Hall 'P 1'
_symmetry_space_group_name_H-M  'P 1'
_symmetry_Int_Tables_number     1

_symmetry_equiv_pos_as_xyz 'x,y,z'

loop_
_atom_site_label
_atom_site_type_symbol
_atom_site_fract_x
_atom_site_fract_y
_atom_site_fract_z
_atom_site_charge
Zr1      Zr     0.485650000000     0.517020000000     0.592230000000     0          
O2       O      0.449100000000     0.570400000000     0.534500000000     0          
C3       C      0.318900000000     0.538400000000     0.631000000000     0          
C4       C      0.132400000000     0.518100000000     0.817400000000     0          
C5       C      0.364580000000     0.534900000000     0.596160000000     0          
C6       C      0.097900000000     0.507400000000     0.861030000000     0          
O7       O      0.407910000000     0.534910000000     0.618580000000     0          
O8       O      0.355630000000     0.533860000000     0.548610000000     0          
O9       O      0.119690000000     0.493820000000     0.902460000000     0          
O10      O      0.050950000000     0.514180000000     0.853630000000     0          
C11      C      0.326000000000     0.534400000000     0.683200000000     0          
Cr12     Cr     0.294900000000     0.502900000000     0.792000000000     0          
C13      C      0.290500000000     0.474800000000     0.855800000000     0          
C14      C      0.362600000000     0.488800000000     0.796100000000     0          
C15      C      0.285900000000     0.433300000000     0.773000000000     0          
C16      C      0.304200000000     0.574100000000     0.806200000000     0          
O17      O      0.285900000000     0.447900000000     0.895500000000     0          
O18      O      0.409200000000     0.483300000000     0.803800000000     0          
O19      O      0.297000000000     0.391000000000     0.774100000000     0          
O20      O      0.311400000000     0.617100000000     0.810800000000     0          
N21      N      0.287300000000     0.518700000000     0.714600000000     0          
N22      N      0.216300000000     0.509000000000     0.783200000000     0          
C23      C      0.239200000000     0.526000000000     0.695100000000     0          
C24      C      0.229100000000     0.532000000000     0.646600000000     0          
C25      C      0.268500000000     0.532100000000     0.610800000000     0          
C26      C      0.198300000000     0.519800000000     0.734900000000     0          
C27      C      0.145200000000     0.521500000000     0.722300000000     0          
C28      C      0.113500000000     0.521500000000     0.766600000000     0          
C29      C      0.183200000000     0.503100000000     0.822200000000     0          
H30      H      0.799150000000     0.864850000000     0.544320000000     0          
H31      H      0.866670000000     0.687670000000     0.537210000000     0          
H32      H      0.932380000000     0.762620000000     0.527550000000     0          
H33      H      0.819670000000     0.632670000000     0.522660000000     0          
H34      H      0.740580000000     0.570380000000     0.524470000000     0          
H35      H      0.640290000000     0.697380000000     0.485460000000     0          
O36      O      0.552300000000     0.552300000000     0.552300000000     0          
Zr1      Zr     0.014350000000     0.482980000000     0.092230000000     0          
O2       O      0.050900000000     0.429600000000     0.034500000000     0          
C3       C      0.181100000000     0.461600000000     0.131000000000     0          
C4       C      0.367600000000     0.481900000000     0.317400000000     0          
C5       C      0.135420000000     0.465100000000     0.096160000000     0          
C6       C      0.402100000000     0.492600000000     0.361030000000     0          
O7       O      0.092090000000     0.465090000000     0.118580000000     0          
O8       O      0.144370000000     0.466140000000     0.048610000000     0          
O9       O      0.380310000000     0.506180000000     0.402460000000     0          
O10      O      0.449050000000     0.485820000000     0.353630000000     0          
C11      C      0.174000000000     0.465600000000     0.183200000000     0          
Cr12     Cr     0.205100000000     0.497100000000     0.292000000000     0          
C13      C      0.209500000000     0.525200000000     0.355800000000     0          
C14      C      0.137400000000     0.511200000000     0.296100000000     0          
C15      C      0.214100000000     0.566700000000     0.273000000000     0          
C16      C      0.195800000000     0.425900000000     0.306200000000     0          
O17      O      0.214100000000     0.552100000000     0.395500000000     0          
O18      O      0.090800000000     0.516700000000     0.303800000000     0          
O19      O      0.203000000000     0.609000000000     0.274100000000     0          
O20      O      0.188600000000     0.382900000000     0.310800000000     0          
N21      N      0.212700000000     0.481300000000     0.214600000000     0          
N22      N      0.283700000000     0.491000000000     0.283200000000     0          
C23      C      0.260800000000     0.474000000000     0.195100000000     0          
C24      C      0.270900000000     0.468000000000     0.146600000000     0          
C25      C      0.231500000000     0.467900000000     0.110800000000     0          
C26      C      0.301700000000     0.480200000000     0.234900000000     0          
C27      C      0.354800000000     0.478500000000     0.222300000000     0          
C28      C      0.386500000000     0.478500000000     0.266600000000     0          
C29      C      0.316800000000     0.496900000000     0.322200000000     0          
H30      H      0.700850000000     0.135150000000     0.044320000000     0          
H31      H      0.633330000000     0.312330000000     0.037210000000     0          
H32      H      0.567620000000     0.237380000000     0.027550000000     0          
H33      H      0.680330000000     0.367330000000     0.022660000000     0          
H34      H      0.759420000000     0.429620000000     0.024470000000     0          
H35      H      0.859710000000     0.302620000000     0.985460000000     0          
O36      O      0.947700000000     0.447700000000     0.052300000000     0          
Zr1      Zr     0.985650000000     0.982980000000     0.407770000000     0          
O2       O      0.949100000000     0.929600000000     0.465500000000     0          
C3       C      0.818900000000     0.961600000000     0.369000000000     0          
C4       C      0.632400000000     0.981900000000     0.182600000000     0          
C5       C      0.864580000000     0.965100000000     0.403840000000     0          
C6       C      0.597900000000     0.992600000000     0.138970000000     0          
O7       O      0.907910000000     0.965090000000     0.381420000000     0          
O8       O      0.855630000000     0.966140000000     0.451390000000     0          
O9       O      0.619690000000     0.006180000000     0.097540000000     0          
O10      O      0.550950000000     0.985820000000     0.146370000000     0          
C11      C      0.826000000000     0.965600000000     0.316800000000     0          
Cr12     Cr     0.794900000000     0.997100000000     0.208000000000     0          
C13      C      0.790500000000     0.025200000000     0.144200000000     0          
C14      C      0.862600000000     0.011200000000     0.203900000000     0          
C15      C      0.785900000000     0.066700000000     0.227000000000     0          
C16      C      0.804200000000     0.925900000000     0.193800000000     0          
O17      O      0.785900000000     0.052100000000     0.104500000000     0          
O18      O      0.909200000000     0.016700000000     0.196200000000     0          
O19      O      0.797000000000     0.109000000000     0.225900000000     0          
O20      O      0.811400000000     0.882900000000     0.189200000000     0          
N21      N      0.787300000000     0.981300000000     0.285400000000     0          
N22      N      0.716300000000     0.991000000000     0.216800000000     0          
C23      C      0.739200000000     0.974000000000     0.304900000000     0          
C24      C      0.729100000000     0.968000000000     0.353400000000     0          
C25      C      0.768500000000     0.967900000000     0.389200000000     0          
C26      C      0.698300000000     0.980200000000     0.265100000000     0          
C27      C      0.645200000000     0.978500000000     0.277700000000     0          
C28      C      0.613500000000     0.978500000000     0.233400000000     0          
C29      C      0.683200000000     0.996900000000     0.177800000000     0          
H30      H      0.299150000000     0.635150000000     0.455680000000     0          
H31      H      0.366670000000     0.812330000000     0.462790000000     0          
H32      H      0.432380000000     0.737380000000     0.472450000000     0          
H33      H      0.319670000000     0.867330000000     0.477340000000     0          
H34      H      0.240580000000     0.929620000000     0.475530000000     0          
H35      H      0.140290000000     0.802620000000     0.514540000000     0          
O36      O      0.052300000000     0.947700000000     0.447700000000     0          
Zr1      Zr     0.514350000000     0.017020000000     0.907770000000     0          
O2       O      0.550900000000     0.070400000000     0.965500000000     0          
C3       C      0.681100000000     0.038400000000     0.869000000000     0          
C4       C      0.867600000000     0.018100000000     0.682600000000     0          
C5       C      0.635420000000     0.034900000000     0.903840000000     0          
C6       C      0.902100000000     0.007400000000     0.638970000000     0          
O7       O      0.592090000000     0.034910000000     0.881420000000     0          
O8       O      0.644370000000     0.033860000000     0.951390000000     0          
O9       O      0.880310000000     0.993820000000     0.597540000000     0          
O10      O      0.949050000000     0.014180000000     0.646370000000     0          
C11      C      0.674000000000     0.034400000000     0.816800000000     0          
Cr12     Cr     0.705100000000     0.002900000000     0.708000000000     0          
C13      C      0.709500000000     0.974800000000     0.644200000000     0          
C14      C      0.637400000000     0.988800000000     0.703900000000     0          
C15      C      0.714100000000     0.933300000000     0.727000000000     0          
C16      C      0.695800000000     0.074100000000     0.693800000000     0          
O17      O      0.714100000000     0.947900000000     0.604500000000     0          
O18      O      0.590800000000     0.983300000000     0.696200000000     0          
O19      O      0.703000000000     0.891000000000     0.725900000000     0          
O20      O      0.688600000000     0.117100000000     0.689200000000     0          
N21      N      0.712700000000     0.018700000000     0.785400000000     0          
N22      N      0.783700000000     0.009000000000     0.716800000000     0          
C23      C      0.760800000000     0.026000000000     0.804900000000     0          
C24      C      0.770900000000     0.032000000000     0.853400000000     0          
C25      C      0.731500000000     0.032100000000     0.889200000000     0          
C26      C      0.801700000000     0.019800000000     0.765100000000     0          
C27      C      0.854800000000     0.021500000000     0.777700000000     0          
C28      C      0.886500000000     0.021500000000     0.733400000000     0          
C29      C      0.816800000000     0.003100000000     0.677800000000     0          
H30      H      0.200850000000     0.364850000000     0.955680000000     0          
H31      H      0.133330000000     0.187670000000     0.962790000000     0          
H32      H      0.067620000000     0.262620000000     0.972450000000     0          
H33      H      0.180330000000     0.132670000000     0.977340000000     0          
H34      H      0.259420000000     0.070380000000     0.975530000000     0          
H35      H      0.359710000000     0.197380000000     0.014540000000     0          
O36      O      0.447700000000     0.052300000000     0.947700000000     0          
Zr1      Zr     0.592230000000     0.485650000000     0.517020000000     0          
O2       O      0.534500000000     0.449100000000     0.570400000000     0          
C3       C      0.631000000000     0.318900000000     0.538400000000     0          
C4       C      0.817400000000     0.132400000000     0.518100000000     0          
C5       C      0.596160000000     0.364580000000     0.534900000000     0          
C6       C      0.861030000000     0.097900000000     0.507400000000     0          
O7       O      0.618580000000     0.407910000000     0.534910000000     0          
O8       O      0.548610000000     0.355630000000     0.533860000000     0          
O9       O      0.902460000000     0.119690000000     0.493820000000     0          
O10      O      0.853630000000     0.050950000000     0.514180000000     0          
C11      C      0.683200000000     0.326000000000     0.534400000000     0          
Cr12     Cr     0.792000000000     0.294900000000     0.502900000000     0          
C13      C      0.855800000000     0.290500000000     0.474800000000     0          
C14      C      0.796100000000     0.362600000000     0.488800000000     0          
C15      C      0.773000000000     0.285900000000     0.433300000000     0          
C16      C      0.806200000000     0.304200000000     0.574100000000     0          
O17      O      0.895500000000     0.285900000000     0.447900000000     0          
O18      O      0.803800000000     0.409200000000     0.483300000000     0          
O19      O      0.774100000000     0.297000000000     0.391000000000     0          
O20      O      0.810800000000     0.311400000000     0.617100000000     0          
N21      N      0.714600000000     0.287300000000     0.518700000000     0          
N22      N      0.783200000000     0.216300000000     0.509000000000     0          
C23      C      0.695100000000     0.239200000000     0.526000000000     0          
C24      C      0.646600000000     0.229100000000     0.532000000000     0          
C25      C      0.610800000000     0.268500000000     0.532100000000     0          
C26      C      0.734900000000     0.198300000000     0.519800000000     0          
C27      C      0.722300000000     0.145200000000     0.521500000000     0          
C28      C      0.766600000000     0.113500000000     0.521500000000     0          
C29      C      0.822200000000     0.183200000000     0.503100000000     0          
H30      H      0.544320000000     0.799150000000     0.864850000000     0          
H31      H      0.537210000000     0.866670000000     0.687670000000     0          
H32      H      0.527550000000     0.932380000000     0.762620000000     0          
H33      H      0.522660000000     0.819670000000     0.632670000000     0          
H34      H      0.524470000000     0.740580000000     0.570380000000     0          
H35      H      0.485460000000     0.640290000000     0.697380000000     0          
Zr1      Zr     0.907770000000     0.514350000000     0.017020000000     0          
O2       O      0.965500000000     0.550900000000     0.070400000000     0          
C3       C      0.869000000000     0.681100000000     0.038400000000     0          
C4       C      0.682600000000     0.867600000000     0.018100000000     0          
C5       C      0.903840000000     0.635420000000     0.034900000000     0          
C6       C      0.638970000000     0.902100000000     0.007400000000     0          
O7       O      0.881420000000     0.592090000000     0.034910000000     0          
O8       O      0.951390000000     0.644370000000     0.033860000000     0          
O9       O      0.597540000000     0.880310000000     0.993820000000     0          
O10      O      0.646370000000     0.949050000000     0.014180000000     0          
C11      C      0.816800000000     0.674000000000     0.034400000000     0          
Cr12     Cr     0.708000000000     0.705100000000     0.002900000000     0          
C13      C      0.644200000000     0.709500000000     0.974800000000     0          
C14      C      0.703900000000     0.637400000000     0.988800000000     0          
C15      C      0.727000000000     0.714100000000     0.933300000000     0          
C16      C      0.693800000000     0.695800000000     0.074100000000     0          
O17      O      0.604500000000     0.714100000000     0.947900000000     0          
O18      O      0.696200000000     0.590800000000     0.983300000000     0          
O19      O      0.725900000000     0.703000000000     0.891000000000     0          
O20      O      0.689200000000     0.688600000000     0.117100000000     0          
N21      N      0.785400000000     0.712700000000     0.018700000000     0          
N22      N      0.716800000000     0.783700000000     0.009000000000     0          
C23      C      0.804900000000     0.760800000000     0.026000000000     0          
C24      C      0.853400000000     0.770900000000     0.032000000000     0          
C25      C      0.889200000000     0.731500000000     0.032100000000     0          
C26      C      0.765100000000     0.801700000000     0.019800000000     0          
C27      C      0.777700000000     0.854800000000     0.021500000000     0          
C28      C      0.733400000000     0.886500000000     0.021500000000     0          
C29      C      0.677800000000     0.816800000000     0.003100000000     0          
H30      H      0.955680000000     0.200850000000     0.364850000000     0          
H31      H      0.962790000000     0.133330000000     0.187670000000     0          
H32      H      0.972450000000     0.067620000000     0.262620000000     0          
H33      H      0.977340000000     0.180330000000     0.132670000000     0          
H34      H      0.975530000000     0.259420000000     0.070380000000     0          
H35      H      0.014540000000     0.359710000000     0.197380000000     0          
Zr1      Zr     0.092230000000     0.014350000000     0.482980000000     0          
O2       O      0.034500000000     0.050900000000     0.429600000000     0          
C3       C      0.131000000000     0.181100000000     0.461600000000     0          
C4       C      0.317400000000     0.367600000000     0.481900000000     0          
C5       C      0.096160000000     0.135420000000     0.465100000000     0          
C6       C      0.361030000000     0.402100000000     0.492600000000     0          
O7       O      0.118580000000     0.092090000000     0.465090000000     0          
O8       O      0.048610000000     0.144370000000     0.466140000000     0          
O9       O      0.402460000000     0.380310000000     0.506180000000     0          
O10      O      0.353630000000     0.449050000000     0.485820000000     0          
C11      C      0.183200000000     0.174000000000     0.465600000000     0          
Cr12     Cr     0.292000000000     0.205100000000     0.497100000000     0          
C13      C      0.355800000000     0.209500000000     0.525200000000     0          
C14      C      0.296100000000     0.137400000000     0.511200000000     0          
C15      C      0.273000000000     0.214100000000     0.566700000000     0          
C16      C      0.306200000000     0.195800000000     0.425900000000     0          
O17      O      0.395500000000     0.214100000000     0.552100000000     0          
O18      O      0.303800000000     0.090800000000     0.516700000000     0          
O19      O      0.274100000000     0.203000000000     0.609000000000     0          
O20      O      0.310800000000     0.188600000000     0.382900000000     0          
N21      N      0.214600000000     0.212700000000     0.481300000000     0          
N22      N      0.283200000000     0.283700000000     0.491000000000     0          
C23      C      0.195100000000     0.260800000000     0.474000000000     0          
C24      C      0.146600000000     0.270900000000     0.468000000000     0          
C25      C      0.110800000000     0.231500000000     0.467900000000     0          
C26      C      0.234900000000     0.301700000000     0.480200000000     0          
C27      C      0.222300000000     0.354800000000     0.478500000000     0          
C28      C      0.266600000000     0.386500000000     0.478500000000     0          
C29      C      0.322200000000     0.316800000000     0.496900000000     0          
H30      H      0.044320000000     0.700850000000     0.135150000000     0          
H31      H      0.037210000000     0.633330000000     0.312330000000     0          
H32      H      0.027550000000     0.567620000000     0.237380000000     0          
H33      H      0.022660000000     0.680330000000     0.367330000000     0          
H34      H      0.024470000000     0.759420000000     0.429620000000     0          
H35      H      0.985460000000     0.859710000000     0.302620000000     0          
Zr1      Zr     0.407770000000     0.985650000000     0.982980000000     0          
O2       O      0.465500000000     0.949100000000     0.929600000000     0          
C3       C      0.369000000000     0.818900000000     0.961600000000     0          
C4       C      0.182600000000     0.632400000000     0.981900000000     0          
C5       C      0.403840000000     0.864580000000     0.965100000000     0          
C6       C      0.138970000000     0.597900000000     0.992600000000     0          
O7       O      0.381420000000     0.907910000000     0.965090000000     0          
O8       O      0.451390000000     0.855630000000     0.966140000000     0          
O9       O      0.097540000000     0.619690000000     0.006180000000     0          
O10      O      0.146370000000     0.550950000000     0.985820000000     0          
C11      C      0.316800000000     0.826000000000     0.965600000000     0          
Cr12     Cr     0.208000000000     0.794900000000     0.997100000000     0          
C13      C      0.144200000000     0.790500000000     0.025200000000     0          
C14      C      0.203900000000     0.862600000000     0.011200000000     0          
C15      C      0.227000000000     0.785900000000     0.066700000000     0          
C16      C      0.193800000000     0.804200000000     0.925900000000     0          
O17      O      0.104500000000     0.785900000000     0.052100000000     0          
O18      O      0.196200000000     0.909200000000     0.016700000000     0          
O19      O      0.225900000000     0.797000000000     0.109000000000     0          
O20      O      0.189200000000     0.811400000000     0.882900000000     0          
N21      N      0.285400000000     0.787300000000     0.981300000000     0          
N22      N      0.216800000000     0.716300000000     0.991000000000     0          
C23      C      0.304900000000     0.739200000000     0.974000000000     0          
C24      C      0.353400000000     0.729100000000     0.968000000000     0          
C25      C      0.389200000000     0.768500000000     0.967900000000     0          
C26      C      0.265100000000     0.698300000000     0.980200000000     0          
C27      C      0.277700000000     0.645200000000     0.978500000000     0          
C28      C      0.233400000000     0.613500000000     0.978500000000     0          
C29      C      0.177800000000     0.683200000000     0.996900000000     0          
H30      H      0.455680000000     0.299150000000     0.635150000000     0          
H31      H      0.462790000000     0.366670000000     0.812330000000     0          
H32      H      0.472450000000     0.432380000000     0.737380000000     0          
H33      H      0.477340000000     0.319670000000     0.867330000000     0          
H34      H      0.475530000000     0.240580000000     0.929620000000     0          
H35      H      0.514540000000     0.140290000000     0.802620000000     0          
Zr1      Zr     0.517020000000     0.592230000000     0.485650000000     0          
O2       O      0.570400000000     0.534500000000     0.449100000000     0          
C3       C      0.538400000000     0.631000000000     0.318900000000     0          
C4       C      0.518100000000     0.817400000000     0.132400000000     0          
C5       C      0.534900000000     0.596160000000     0.364580000000     0          
C6       C      0.507400000000     0.861030000000     0.097900000000     0          
O7       O      0.534910000000     0.618580000000     0.407910000000     0          
O8       O      0.533860000000     0.548610000000     0.355630000000     0          
O9       O      0.493820000000     0.902460000000     0.119690000000     0          
O10      O      0.514180000000     0.853630000000     0.050950000000     0          
C11      C      0.534400000000     0.683200000000     0.326000000000     0          
Cr12     Cr     0.502900000000     0.792000000000     0.294900000000     0          
C13      C      0.474800000000     0.855800000000     0.290500000000     0          
C14      C      0.488800000000     0.796100000000     0.362600000000     0          
C15      C      0.433300000000     0.773000000000     0.285900000000     0          
C16      C      0.574100000000     0.806200000000     0.304200000000     0          
O17      O      0.447900000000     0.895500000000     0.285900000000     0          
O18      O      0.483300000000     0.803800000000     0.409200000000     0          
O19      O      0.391000000000     0.774100000000     0.297000000000     0          
O20      O      0.617100000000     0.810800000000     0.311400000000     0          
N21      N      0.518700000000     0.714600000000     0.287300000000     0          
N22      N      0.509000000000     0.783200000000     0.216300000000     0          
C23      C      0.526000000000     0.695100000000     0.239200000000     0          
C24      C      0.532000000000     0.646600000000     0.229100000000     0          
C25      C      0.532100000000     0.610800000000     0.268500000000     0          
C26      C      0.519800000000     0.734900000000     0.198300000000     0          
C27      C      0.521500000000     0.722300000000     0.145200000000     0          
C28      C      0.521500000000     0.766600000000     0.113500000000     0          
C29      C      0.503100000000     0.822200000000     0.183200000000     0          
H30      H      0.864850000000     0.544320000000     0.799150000000     0          
H31      H      0.687670000000     0.537210000000     0.866670000000     0          
H32      H      0.762620000000     0.527550000000     0.932380000000     0          
H33      H      0.632670000000     0.522660000000     0.819670000000     0          
H34      H      0.570380000000     0.524470000000     0.740580000000     0          
H35      H      0.697380000000     0.485460000000     0.640290000000     0          
Zr1      Zr     0.017020000000     0.907770000000     0.514350000000     0          
O2       O      0.070400000000     0.965500000000     0.550900000000     0          
C3       C      0.038400000000     0.869000000000     0.681100000000     0          
C4       C      0.018100000000     0.682600000000     0.867600000000     0          
C5       C      0.034900000000     0.903840000000     0.635420000000     0          
C6       C      0.007400000000     0.638970000000     0.902100000000     0          
O7       O      0.034910000000     0.881420000000     0.592090000000     0          
O8       O      0.033860000000     0.951390000000     0.644370000000     0          
O9       O      0.993820000000     0.597540000000     0.880310000000     0          
O10      O      0.014180000000     0.646370000000     0.949050000000     0          
C11      C      0.034400000000     0.816800000000     0.674000000000     0          
Cr12     Cr     0.002900000000     0.708000000000     0.705100000000     0          
C13      C      0.974800000000     0.644200000000     0.709500000000     0          
C14      C      0.988800000000     0.703900000000     0.637400000000     0          
C15      C      0.933300000000     0.727000000000     0.714100000000     0          
C16      C      0.074100000000     0.693800000000     0.695800000000     0          
O17      O      0.947900000000     0.604500000000     0.714100000000     0          
O18      O      0.983300000000     0.696200000000     0.590800000000     0          
O19      O      0.891000000000     0.725900000000     0.703000000000     0          
O20      O      0.117100000000     0.689200000000     0.688600000000     0          
N21      N      0.018700000000     0.785400000000     0.712700000000     0          
N22      N      0.009000000000     0.716800000000     0.783700000000     0          
C23      C      0.026000000000     0.804900000000     0.760800000000     0          
C24      C      0.032000000000     0.853400000000     0.770900000000     0          
C25      C      0.032100000000     0.889200000000     0.731500000000     0          
C26      C      0.019800000000     0.765100000000     0.801700000000     0          
C27      C      0.021500000000     0.777700000000     0.854800000000     0          
C28      C      0.021500000000     0.733400000000     0.886500000000     0          
C29      C      0.003100000000     0.677800000000     0.816800000000     0          
H30      H      0.364850000000     0.955680000000     0.200850000000     0          
H31      H      0.187670000000     0.962790000000     0.133330000000     0          
H32      H      0.262620000000     0.972450000000     0.067620000000     0          
H33      H      0.132670000000     0.977340000000     0.180330000000     0          
H34      H      0.070380000000     0.975530000000     0.259420000000     0          
H35      H      0.197380000000     0.014540000000     0.359710000000     0          
Zr1      Zr     0.482980000000     0.092230000000     0.014350000000     0          
O2       O      0.429600000000     0.034500000000     0.050900000000     0          
C3       C      0.461600000000     0.131000000000     0.181100000000     0          
C4       C      0.481900000000     0.317400000000     0.367600000000     0          
C5       C      0.465100000000     0.096160000000     0.135420000000     0          
C6       C      0.492600000000     0.361030000000     0.402100000000     0          
O7       O      0.465090000000     0.118580000000     0.092090000000     0          
O8       O      0.466140000000     0.048610000000     0.144370000000     0          
O9       O      0.506180000000     0.402460000000     0.380310000000     0          
O10      O      0.485820000000     0.353630000000     0.449050000000     0          
C11      C      0.465600000000     0.183200000000     0.174000000000     0          
Cr12     Cr     0.497100000000     0.292000000000     0.205100000000     0          
C13      C      0.525200000000     0.355800000000     0.209500000000     0          
C14      C      0.511200000000     0.296100000000     0.137400000000     0          
C15      C      0.566700000000     0.273000000000     0.214100000000     0          
C16      C      0.425900000000     0.306200000000     0.195800000000     0          
O17      O      0.552100000000     0.395500000000     0.214100000000     0          
O18      O      0.516700000000     0.303800000000     0.090800000000     0          
O19      O      0.609000000000     0.274100000000     0.203000000000     0          
O20      O      0.382900000000     0.310800000000     0.188600000000     0          
N21      N      0.481300000000     0.214600000000     0.212700000000     0          
N22      N      0.491000000000     0.283200000000     0.283700000000     0          
C23      C      0.474000000000     0.195100000000     0.260800000000     0          
C24      C      0.468000000000     0.146600000000     0.270900000000     0          
C25      C      0.467900000000     0.110800000000     0.231500000000     0          
C26      C      0.480200000000     0.234900000000     0.301700000000     0          
C27      C      0.478500000000     0.222300000000     0.354800000000     0          
C28      C      0.478500000000     0.266600000000     0.386500000000     0          
C29      C      0.496900000000     0.322200000000     0.316800000000     0          
H30      H      0.135150000000     0.044320000000     0.700850000000     0          
H31      H      0.312330000000     0.037210000000     0.633330000000     0          
H32      H      0.237380000000     0.027550000000     0.567620000000     0          
H33      H      0.367330000000     0.022660000000     0.680330000000     0          
H34      H      0.429620000000     0.024470000000     0.759420000000     0          
H35      H      0.302620000000     0.985460000000     0.859710000000     0          
Zr1      Zr     0.982980000000     0.407770000000     0.985650000000     0          
O2       O      0.929600000000     0.465500000000     0.949100000000     0          
C3       C      0.961600000000     0.369000000000     0.818900000000     0          
C4       C      0.981900000000     0.182600000000     0.632400000000     0          
C5       C      0.965100000000     0.403840000000     0.864580000000     0          
C6       C      0.992600000000     0.138970000000     0.597900000000     0          
O7       O      0.965090000000     0.381420000000     0.907910000000     0          
O8       O      0.966140000000     0.451390000000     0.855630000000     0          
O9       O      0.006180000000     0.097540000000     0.619690000000     0          
O10      O      0.985820000000     0.146370000000     0.550950000000     0          
C11      C      0.965600000000     0.316800000000     0.826000000000     0          
Cr12     Cr     0.997100000000     0.208000000000     0.794900000000     0          
C13      C      0.025200000000     0.144200000000     0.790500000000     0          
C14      C      0.011200000000     0.203900000000     0.862600000000     0          
C15      C      0.066700000000     0.227000000000     0.785900000000     0          
C16      C      0.925900000000     0.193800000000     0.804200000000     0          
O17      O      0.052100000000     0.104500000000     0.785900000000     0          
O18      O      0.016700000000     0.196200000000     0.909200000000     0          
O19      O      0.109000000000     0.225900000000     0.797000000000     0          
O20      O      0.882900000000     0.189200000000     0.811400000000     0          
N21      N      0.981300000000     0.285400000000     0.787300000000     0          
N22      N      0.991000000000     0.216800000000     0.716300000000     0          
C23      C      0.974000000000     0.304900000000     0.739200000000     0          
C24      C      0.968000000000     0.353400000000     0.729100000000     0          
C25      C      0.967900000000     0.389200000000     0.768500000000     0          
C26      C      0.980200000000     0.265100000000     0.698300000000     0          
C27      C      0.978500000000     0.277700000000     0.645200000000     0          
C28      C      0.978500000000     0.233400000000     0.613500000000     0          
C29      C      0.996900000000     0.177800000000     0.683200000000     0          
H30      H      0.635150000000     0.455680000000     0.299150000000     0          
H31      H      0.812330000000     0.462790000000     0.366670000000     0          
H32      H      0.737380000000     0.472450000000     0.432380000000     0          
H33      H      0.867330000000     0.477340000000     0.319670000000     0          
H34      H      0.929620000000     0.475530000000     0.240580000000     0          
H35      H      0.802620000000     0.514540000000     0.140290000000     0          
Zr1      Zr     0.514350000000     0.482980000000     0.407770000000     0          
O2       O      0.550900000000     0.429600000000     0.465500000000     0          
C3       C      0.681100000000     0.461600000000     0.369000000000     0          
C4       C      0.867600000000     0.481900000000     0.182600000000     0          
C5       C      0.635420000000     0.465100000000     0.403840000000     0          
C6       C      0.902100000000     0.492600000000     0.138970000000     0          
O7       O      0.592090000000     0.465090000000     0.381420000000     0          
O8       O      0.644370000000     0.466140000000     0.451390000000     0          
O9       O      0.880310000000     0.506180000000     0.097540000000     0          
O10      O      0.949050000000     0.485820000000     0.146370000000     0          
C11      C      0.674000000000     0.465600000000     0.316800000000     0          
Cr12     Cr     0.705100000000     0.497100000000     0.208000000000     0          
C13      C      0.709500000000     0.525200000000     0.144200000000     0          
C14      C      0.637400000000     0.511200000000     0.203900000000     0          
C15      C      0.714100000000     0.566700000000     0.227000000000     0          
C16      C      0.695800000000     0.425900000000     0.193800000000     0          
O17      O      0.714100000000     0.552100000000     0.104500000000     0          
O18      O      0.590800000000     0.516700000000     0.196200000000     0          
O19      O      0.703000000000     0.609000000000     0.225900000000     0          
O20      O      0.688600000000     0.382900000000     0.189200000000     0          
N21      N      0.712700000000     0.481300000000     0.285400000000     0          
N22      N      0.783700000000     0.491000000000     0.216800000000     0          
C23      C      0.760800000000     0.474000000000     0.304900000000     0          
C24      C      0.770900000000     0.468000000000     0.353400000000     0          
C25      C      0.731500000000     0.467900000000     0.389200000000     0          
C26      C      0.801700000000     0.480200000000     0.265100000000     0          
C27      C      0.854800000000     0.478500000000     0.277700000000     0          
C28      C      0.886500000000     0.478500000000     0.233400000000     0          
C29      C      0.816800000000     0.496900000000     0.177800000000     0          
H30      H      0.200850000000     0.135150000000     0.455680000000     0          
H31      H      0.133330000000     0.312330000000     0.462790000000     0          
H32      H      0.067620000000     0.237380000000     0.472450000000     0          
H33      H      0.180330000000     0.367330000000     0.477340000000     0          
H34      H      0.259420000000     0.429620000000     0.475530000000     0          
H35      H      0.359710000000     0.302620000000     0.514540000000     0          
O36      O      0.447700000000     0.447700000000     0.447700000000     0          
Zr1      Zr     0.985650000000     0.517020000000     0.907770000000     0          
O2       O      0.949100000000     0.570400000000     0.965500000000     0          
C3       C      0.818900000000     0.538400000000     0.869000000000     0          
C4       C      0.632400000000     0.518100000000     0.682600000000     0          
C5       C      0.864580000000     0.534900000000     0.903840000000     0          
C6       C      0.597900000000     0.507400000000     0.638970000000     0          
O7       O      0.907910000000     0.534910000000     0.881420000000     0          
O8       O      0.855630000000     0.533860000000     0.951390000000     0          
O9       O      0.619690000000     0.493820000000     0.597540000000     0          
O10      O      0.550950000000     0.514180000000     0.646370000000     0          
C11      C      0.826000000000     0.534400000000     0.816800000000     0          
Cr12     Cr     0.794900000000     0.502900000000     0.708000000000     0          
C13      C      0.790500000000     0.474800000000     0.644200000000     0          
C14      C      0.862600000000     0.488800000000     0.703900000000     0          
C15      C      0.785900000000     0.433300000000     0.727000000000     0          
C16      C      0.804200000000     0.574100000000     0.693800000000     0          
O17      O      0.785900000000     0.447900000000     0.604500000000     0          
O18      O      0.909200000000     0.483300000000     0.696200000000     0          
O19      O      0.797000000000     0.391000000000     0.725900000000     0          
O20      O      0.811400000000     0.617100000000     0.689200000000     0          
N21      N      0.787300000000     0.518700000000     0.785400000000     0          
N22      N      0.716300000000     0.509000000000     0.716800000000     0          
C23      C      0.739200000000     0.526000000000     0.804900000000     0          
C24      C      0.729100000000     0.532000000000     0.853400000000     0          
C25      C      0.768500000000     0.532100000000     0.889200000000     0          
C26      C      0.698300000000     0.519800000000     0.765100000000     0          
C27      C      0.645200000000     0.521500000000     0.777700000000     0          
C28      C      0.613500000000     0.521500000000     0.733400000000     0          
C29      C      0.683200000000     0.503100000000     0.677800000000     0          
H30      H      0.299150000000     0.864850000000     0.955680000000     0          
H31      H      0.366670000000     0.687670000000     0.962790000000     0          
H32      H      0.432380000000     0.762620000000     0.972450000000     0          
H33      H      0.319670000000     0.632670000000     0.977340000000     0          
H34      H      0.240580000000     0.570380000000     0.975530000000     0          
H35      H      0.140290000000     0.697380000000     0.014540000000     0          
O36      O      0.052300000000     0.552300000000     0.947700000000     0          
Zr1      Zr     0.014350000000     0.017020000000     0.592230000000     0          
O2       O      0.050900000000     0.070400000000     0.534500000000     0          
C3       C      0.181100000000     0.038400000000     0.631000000000     0          
C4       C      0.367600000000     0.018100000000     0.817400000000     0          
C5       C      0.135420000000     0.034900000000     0.596160000000     0          
C6       C      0.402100000000     0.007400000000     0.861030000000     0          
O7       O      0.092090000000     0.034910000000     0.618580000000     0          
O8       O      0.144370000000     0.033860000000     0.548610000000     0          
O9       O      0.380310000000     0.993820000000     0.902460000000     0          
O10      O      0.449050000000     0.014180000000     0.853630000000     0          
C11      C      0.174000000000     0.034400000000     0.683200000000     0          
Cr12     Cr     0.205100000000     0.002900000000     0.792000000000     0          
C13      C      0.209500000000     0.974800000000     0.855800000000     0          
C14      C      0.137400000000     0.988800000000     0.796100000000     0          
C15      C      0.214100000000     0.933300000000     0.773000000000     0          
C16      C      0.195800000000     0.074100000000     0.806200000000     0          
O17      O      0.214100000000     0.947900000000     0.895500000000     0          
O18      O      0.090800000000     0.983300000000     0.803800000000     0          
O19      O      0.203000000000     0.891000000000     0.774100000000     0          
O20      O      0.188600000000     0.117100000000     0.810800000000     0          
N21      N      0.212700000000     0.018700000000     0.714600000000     0          
N22      N      0.283700000000     0.009000000000     0.783200000000     0          
C23      C      0.260800000000     0.026000000000     0.695100000000     0          
C24      C      0.270900000000     0.032000000000     0.646600000000     0          
C25      C      0.231500000000     0.032100000000     0.610800000000     0          
C26      C      0.301700000000     0.019800000000     0.734900000000     0          
C27      C      0.354800000000     0.021500000000     0.722300000000     0          
C28      C      0.386500000000     0.021500000000     0.766600000000     0          
C29      C      0.316800000000     0.003100000000     0.822200000000     0          
H30      H      0.700850000000     0.364850000000     0.544320000000     0          
H31      H      0.633330000000     0.187670000000     0.537210000000     0          
H32      H      0.567620000000     0.262620000000     0.527550000000     0          
H33      H      0.680330000000     0.132670000000     0.522660000000     0          
H34      H      0.759420000000     0.070380000000     0.524470000000     0          
H35      H      0.859710000000     0.197380000000     0.485460000000     0          
O36      O      0.947700000000     0.052300000000     0.552300000000     0          
Zr1      Zr     0.485650000000     0.982980000000     0.092230000000     0          
O2       O      0.449100000000     0.929600000000     0.034500000000     0          
C3       C      0.318900000000     0.961600000000     0.131000000000     0          
C4       C      0.132400000000     0.981900000000     0.317400000000     0          
C5       C      0.364580000000     0.965100000000     0.096160000000     0          
C6       C      0.097900000000     0.992600000000     0.361030000000     0          
O7       O      0.407910000000     0.965090000000     0.118580000000     0          
O8       O      0.355630000000     0.966140000000     0.048610000000     0          
O9       O      0.119690000000     0.006180000000     0.402460000000     0          
O10      O      0.050950000000     0.985820000000     0.353630000000     0          
C11      C      0.326000000000     0.965600000000     0.183200000000     0          
Cr12     Cr     0.294900000000     0.997100000000     0.292000000000     0          
C13      C      0.290500000000     0.025200000000     0.355800000000     0          
C14      C      0.362600000000     0.011200000000     0.296100000000     0          
C15      C      0.285900000000     0.066700000000     0.273000000000     0          
C16      C      0.304200000000     0.925900000000     0.306200000000     0          
O17      O      0.285900000000     0.052100000000     0.395500000000     0          
O18      O      0.409200000000     0.016700000000     0.303800000000     0          
O19      O      0.297000000000     0.109000000000     0.274100000000     0          
O20      O      0.311400000000     0.882900000000     0.310800000000     0          
N21      N      0.287300000000     0.981300000000     0.214600000000     0          
N22      N      0.216300000000     0.991000000000     0.283200000000     0          
C23      C      0.239200000000     0.974000000000     0.195100000000     0          
C24      C      0.229100000000     0.968000000000     0.146600000000     0          
C25      C      0.268500000000     0.967900000000     0.110800000000     0          
C26      C      0.198300000000     0.980200000000     0.234900000000     0          
C27      C      0.145200000000     0.978500000000     0.222300000000     0          
C28      C      0.113500000000     0.978500000000     0.266600000000     0          
C29      C      0.183200000000     0.996900000000     0.322200000000     0          
H30      H      0.799150000000     0.635150000000     0.044320000000     0          
H31      H      0.866670000000     0.812330000000     0.037210000000     0          
H32      H      0.932380000000     0.737380000000     0.027550000000     0          
H33      H      0.819670000000     0.867330000000     0.022660000000     0          
H34      H      0.740580000000     0.929620000000     0.024470000000     0          
H35      H      0.640290000000     0.802620000000     0.985460000000     0          
O36      O      0.552300000000     0.947700000000     0.052300000000     0          
Zr1      Zr     0.407770000000     0.514350000000     0.482980000000     0          
O2       O      0.465500000000     0.550900000000     0.429600000000     0          
C3       C      0.369000000000     0.681100000000     0.461600000000     0          
C4       C      0.182600000000     0.867600000000     0.481900000000     0          
C5       C      0.403840000000     0.635420000000     0.465100000000     0          
C6       C      0.138970000000     0.902100000000     0.492600000000     0          
O7       O      0.381420000000     0.592090000000     0.465090000000     0          
O8       O      0.451390000000     0.644370000000     0.466140000000     0          
O9       O      0.097540000000     0.880310000000     0.506180000000     0          
O10      O      0.146370000000     0.949050000000     0.485820000000     0          
C11      C      0.316800000000     0.674000000000     0.465600000000     0          
Cr12     Cr     0.208000000000     0.705100000000     0.497100000000     0          
C13      C      0.144200000000     0.709500000000     0.525200000000     0          
C14      C      0.203900000000     0.637400000000     0.511200000000     0          
C15      C      0.227000000000     0.714100000000     0.566700000000     0          
C16      C      0.193800000000     0.695800000000     0.425900000000     0          
O17      O      0.104500000000     0.714100000000     0.552100000000     0          
O18      O      0.196200000000     0.590800000000     0.516700000000     0          
O19      O      0.225900000000     0.703000000000     0.609000000000     0          
O20      O      0.189200000000     0.688600000000     0.382900000000     0          
N21      N      0.285400000000     0.712700000000     0.481300000000     0          
N22      N      0.216800000000     0.783700000000     0.491000000000     0          
C23      C      0.304900000000     0.760800000000     0.474000000000     0          
C24      C      0.353400000000     0.770900000000     0.468000000000     0          
C25      C      0.389200000000     0.731500000000     0.467900000000     0          
C26      C      0.265100000000     0.801700000000     0.480200000000     0          
C27      C      0.277700000000     0.854800000000     0.478500000000     0          
C28      C      0.233400000000     0.886500000000     0.478500000000     0          
C29      C      0.177800000000     0.816800000000     0.496900000000     0          
H30      H      0.455680000000     0.200850000000     0.135150000000     0          
H31      H      0.462790000000     0.133330000000     0.312330000000     0          
H32      H      0.472450000000     0.067620000000     0.237380000000     0          
H33      H      0.477340000000     0.180330000000     0.367330000000     0          
H34      H      0.475530000000     0.259420000000     0.429620000000     0          
H35      H      0.514540000000     0.359710000000     0.302620000000     0          
Zr1      Zr     0.092230000000     0.485650000000     0.982980000000     0          
O2       O      0.034500000000     0.449100000000     0.929600000000     0          
C3       C      0.131000000000     0.318900000000     0.961600000000     0          
C4       C      0.317400000000     0.132400000000     0.981900000000     0          
C5       C      0.096160000000     0.364580000000     0.965100000000     0          
C6       C      0.361030000000     0.097900000000     0.992600000000     0          
O7       O      0.118580000000     0.407910000000     0.965090000000     0          
O8       O      0.048610000000     0.355630000000     0.966140000000     0          
O9       O      0.402460000000     0.119690000000     0.006180000000     0          
O10      O      0.353630000000     0.050950000000     0.985820000000     0          
C11      C      0.183200000000     0.326000000000     0.965600000000     0          
Cr12     Cr     0.292000000000     0.294900000000     0.997100000000     0          
C13      C      0.355800000000     0.290500000000     0.025200000000     0          
C14      C      0.296100000000     0.362600000000     0.011200000000     0          
C15      C      0.273000000000     0.285900000000     0.066700000000     0          
C16      C      0.306200000000     0.304200000000     0.925900000000     0          
O17      O      0.395500000000     0.285900000000     0.052100000000     0          
O18      O      0.303800000000     0.409200000000     0.016700000000     0          
O19      O      0.274100000000     0.297000000000     0.109000000000     0          
O20      O      0.310800000000     0.311400000000     0.882900000000     0          
N21      N      0.214600000000     0.287300000000     0.981300000000     0          
N22      N      0.283200000000     0.216300000000     0.991000000000     0          
C23      C      0.195100000000     0.239200000000     0.974000000000     0          
C24      C      0.146600000000     0.229100000000     0.968000000000     0          
C25      C      0.110800000000     0.268500000000     0.967900000000     0          
C26      C      0.234900000000     0.198300000000     0.980200000000     0          
C27      C      0.222300000000     0.145200000000     0.978500000000     0          
C28      C      0.266600000000     0.113500000000     0.978500000000     0          
C29      C      0.322200000000     0.183200000000     0.996900000000     0          
H30      H      0.044320000000     0.799150000000     0.635150000000     0          
H31      H      0.037210000000     0.866670000000     0.812330000000     0          
H32      H      0.027550000000     0.932380000000     0.737380000000     0          
H33      H      0.022660000000     0.819670000000     0.867330000000     0          
H34      H      0.024470000000     0.740580000000     0.929620000000     0          
H35      H      0.985460000000     0.640290000000     0.802620000000     0          
Zr1      Zr     0.907770000000     0.985650000000     0.517020000000     0          
O2       O      0.965500000000     0.949100000000     0.570400000000     0          
C3       C      0.869000000000     0.818900000000     0.538400000000     0          
C4       C      0.682600000000     0.632400000000     0.518100000000     0          
C5       C      0.903840000000     0.864580000000     0.534900000000     0          
C6       C      0.638970000000     0.597900000000     0.507400000000     0          
O7       O      0.881420000000     0.907910000000     0.534910000000     0          
O8       O      0.951390000000     0.855630000000     0.533860000000     0          
O9       O      0.597540000000     0.619690000000     0.493820000000     0          
O10      O      0.646370000000     0.550950000000     0.514180000000     0          
C11      C      0.816800000000     0.826000000000     0.534400000000     0          
Cr12     Cr     0.708000000000     0.794900000000     0.502900000000     0          
C13      C      0.644200000000     0.790500000000     0.474800000000     0          
C14      C      0.703900000000     0.862600000000     0.488800000000     0          
C15      C      0.727000000000     0.785900000000     0.433300000000     0          
C16      C      0.693800000000     0.804200000000     0.574100000000     0          
O17      O      0.604500000000     0.785900000000     0.447900000000     0          
O18      O      0.696200000000     0.909200000000     0.483300000000     0          
O19      O      0.725900000000     0.797000000000     0.391000000000     0          
O20      O      0.689200000000     0.811400000000     0.617100000000     0          
N21      N      0.785400000000     0.787300000000     0.518700000000     0          
N22      N      0.716800000000     0.716300000000     0.509000000000     0          
C23      C      0.804900000000     0.739200000000     0.526000000000     0          
C24      C      0.853400000000     0.729100000000     0.532000000000     0          
C25      C      0.889200000000     0.768500000000     0.532100000000     0          
C26      C      0.765100000000     0.698300000000     0.519800000000     0          
C27      C      0.777700000000     0.645200000000     0.521500000000     0          
C28      C      0.733400000000     0.613500000000     0.521500000000     0          
C29      C      0.677800000000     0.683200000000     0.503100000000     0          
H30      H      0.955680000000     0.299150000000     0.864850000000     0          
H31      H      0.962790000000     0.366670000000     0.687670000000     0          
H32      H      0.972450000000     0.432380000000     0.762620000000     0          
H33      H      0.977340000000     0.319670000000     0.632670000000     0          
H34      H      0.975530000000     0.240580000000     0.570380000000     0          
H35      H      0.014540000000     0.140290000000     0.697380000000     0          
Zr1      Zr     0.592230000000     0.014350000000     0.017020000000     0          
O2       O      0.534500000000     0.050900000000     0.070400000000     0          
C3       C      0.631000000000     0.181100000000     0.038400000000     0          
C4       C      0.817400000000     0.367600000000     0.018100000000     0          
C5       C      0.596160000000     0.135420000000     0.034900000000     0          
C6       C      0.861030000000     0.402100000000     0.007400000000     0          
O7       O      0.618580000000     0.092090000000     0.034910000000     0          
O8       O      0.548610000000     0.144370000000     0.033860000000     0          
O9       O      0.902460000000     0.380310000000     0.993820000000     0          
O10      O      0.853630000000     0.449050000000     0.014180000000     0          
C11      C      0.683200000000     0.174000000000     0.034400000000     0          
Cr12     Cr     0.792000000000     0.205100000000     0.002900000000     0          
C13      C      0.855800000000     0.209500000000     0.974800000000     0          
C14      C      0.796100000000     0.137400000000     0.988800000000     0          
C15      C      0.773000000000     0.214100000000     0.933300000000     0          
C16      C      0.806200000000     0.195800000000     0.074100000000     0          
O17      O      0.895500000000     0.214100000000     0.947900000000     0          
O18      O      0.803800000000     0.090800000000     0.983300000000     0          
O19      O      0.774100000000     0.203000000000     0.891000000000     0          
O20      O      0.810800000000     0.188600000000     0.117100000000     0          
N21      N      0.714600000000     0.212700000000     0.018700000000     0          
N22      N      0.783200000000     0.283700000000     0.009000000000     0          
C23      C      0.695100000000     0.260800000000     0.026000000000     0          
C24      C      0.646600000000     0.270900000000     0.032000000000     0          
C25      C      0.610800000000     0.231500000000     0.032100000000     0          
C26      C      0.734900000000     0.301700000000     0.019800000000     0          
C27      C      0.722300000000     0.354800000000     0.021500000000     0          
C28      C      0.766600000000     0.386500000000     0.021500000000     0          
C29      C      0.822200000000     0.316800000000     0.003100000000     0          
H30      H      0.544320000000     0.700850000000     0.364850000000     0          
H31      H      0.537210000000     0.633330000000     0.187670000000     0          
H32      H      0.527550000000     0.567620000000     0.262620000000     0          
H33      H      0.522660000000     0.680330000000     0.132670000000     0          
H34      H      0.524470000000     0.759420000000     0.070380000000     0          
H35      H      0.485460000000     0.859710000000     0.197380000000     0          
Zr1      Zr     0.482980000000     0.407770000000     0.514350000000     0          
O2       O      0.429600000000     0.465500000000     0.550900000000     0          
C3       C      0.461600000000     0.369000000000     0.681100000000     0          
C4       C      0.481900000000     0.182600000000     0.867600000000     0          
C5       C      0.465100000000     0.403840000000     0.635420000000     0          
C6       C      0.492600000000     0.138970000000     0.902100000000     0          
O7       O      0.465090000000     0.381420000000     0.592090000000     0          
O8       O      0.466140000000     0.451390000000     0.644370000000     0          
O9       O      0.506180000000     0.097540000000     0.880310000000     0          
O10      O      0.485820000000     0.146370000000     0.949050000000     0          
C11      C      0.465600000000     0.316800000000     0.674000000000     0          
Cr12     Cr     0.497100000000     0.208000000000     0.705100000000     0          
C13      C      0.525200000000     0.144200000000     0.709500000000     0          
C14      C      0.511200000000     0.203900000000     0.637400000000     0          
C15      C      0.566700000000     0.227000000000     0.714100000000     0          
C16      C      0.425900000000     0.193800000000     0.695800000000     0          
O17      O      0.552100000000     0.104500000000     0.714100000000     0          
O18      O      0.516700000000     0.196200000000     0.590800000000     0          
O19      O      0.609000000000     0.225900000000     0.703000000000     0          
O20      O      0.382900000000     0.189200000000     0.688600000000     0          
N21      N      0.481300000000     0.285400000000     0.712700000000     0          
N22      N      0.491000000000     0.216800000000     0.783700000000     0          
C23      C      0.474000000000     0.304900000000     0.760800000000     0          
C24      C      0.468000000000     0.353400000000     0.770900000000     0          
C25      C      0.467900000000     0.389200000000     0.731500000000     0          
C26      C      0.480200000000     0.265100000000     0.801700000000     0          
C27      C      0.478500000000     0.277700000000     0.854800000000     0          
C28      C      0.478500000000     0.233400000000     0.886500000000     0          
C29      C      0.496900000000     0.177800000000     0.816800000000     0          
H30      H      0.135150000000     0.455680000000     0.200850000000     0          
H31      H      0.312330000000     0.462790000000     0.133330000000     0          
H32      H      0.237380000000     0.472450000000     0.067620000000     0          
H33      H      0.367330000000     0.477340000000     0.180330000000     0          
H34      H      0.429620000000     0.475530000000     0.259420000000     0          
H35      H      0.302620000000     0.514540000000     0.359710000000     0          
Zr1      Zr     0.982980000000     0.092230000000     0.485650000000     0          
O2       O      0.929600000000     0.034500000000     0.449100000000     0          
C3       C      0.961600000000     0.131000000000     0.318900000000     0          
C4       C      0.981900000000     0.317400000000     0.132400000000     0          
C5       C      0.965100000000     0.096160000000     0.364580000000     0          
C6       C      0.992600000000     0.361030000000     0.097900000000     0          
O7       O      0.965090000000     0.118580000000     0.407910000000     0          
O8       O      0.966140000000     0.048610000000     0.355630000000     0          
O9       O      0.006180000000     0.402460000000     0.119690000000     0          
O10      O      0.985820000000     0.353630000000     0.050950000000     0          
C11      C      0.965600000000     0.183200000000     0.326000000000     0          
Cr12     Cr     0.997100000000     0.292000000000     0.294900000000     0          
C13      C      0.025200000000     0.355800000000     0.290500000000     0          
C14      C      0.011200000000     0.296100000000     0.362600000000     0          
C15      C      0.066700000000     0.273000000000     0.285900000000     0          
C16      C      0.925900000000     0.306200000000     0.304200000000     0          
O17      O      0.052100000000     0.395500000000     0.285900000000     0          
O18      O      0.016700000000     0.303800000000     0.409200000000     0          
O19      O      0.109000000000     0.274100000000     0.297000000000     0          
O20      O      0.882900000000     0.310800000000     0.311400000000     0          
N21      N      0.981300000000     0.214600000000     0.287300000000     0          
N22      N      0.991000000000     0.283200000000     0.216300000000     0          
C23      C      0.974000000000     0.195100000000     0.239200000000     0          
C24      C      0.968000000000     0.146600000000     0.229100000000     0          
C25      C      0.967900000000     0.110800000000     0.268500000000     0          
C26      C      0.980200000000     0.234900000000     0.198300000000     0          
C27      C      0.978500000000     0.222300000000     0.145200000000     0          
C28      C      0.978500000000     0.266600000000     0.113500000000     0          
C29      C      0.996900000000     0.322200000000     0.183200000000     0          
H30      H      0.635150000000     0.044320000000     0.799150000000     0          
H31      H      0.812330000000     0.037210000000     0.866670000000     0          
H32      H      0.737380000000     0.027550000000     0.932380000000     0          
H33      H      0.867330000000     0.022660000000     0.819670000000     0          
H34      H      0.929620000000     0.024470000000     0.740580000000     0          
H35      H      0.802620000000     0.985460000000     0.640290000000     0          
Zr1      Zr     0.517020000000     0.907770000000     0.985650000000     0          
O2       O      0.570400000000     0.965500000000     0.949100000000     0          
C3       C      0.538400000000     0.869000000000     0.818900000000     0          
C4       C      0.518100000000     0.682600000000     0.632400000000     0          
C5       C      0.534900000000     0.903840000000     0.864580000000     0          
C6       C      0.507400000000     0.638970000000     0.597900000000     0          
O7       O      0.534910000000     0.881420000000     0.907910000000     0          
O8       O      0.533860000000     0.951390000000     0.855630000000     0          
O9       O      0.493820000000     0.597540000000     0.619690000000     0          
O10      O      0.514180000000     0.646370000000     0.550950000000     0          
C11      C      0.534400000000     0.816800000000     0.826000000000     0          
Cr12     Cr     0.502900000000     0.708000000000     0.794900000000     0          
C13      C      0.474800000000     0.644200000000     0.790500000000     0          
C14      C      0.488800000000     0.703900000000     0.862600000000     0          
C15      C      0.433300000000     0.727000000000     0.785900000000     0          
C16      C      0.574100000000     0.693800000000     0.804200000000     0          
O17      O      0.447900000000     0.604500000000     0.785900000000     0          
O18      O      0.483300000000     0.696200000000     0.909200000000     0          
O19      O      0.391000000000     0.725900000000     0.797000000000     0          
O20      O      0.617100000000     0.689200000000     0.811400000000     0          
N21      N      0.518700000000     0.785400000000     0.787300000000     0          
N22      N      0.509000000000     0.716800000000     0.716300000000     0          
C23      C      0.526000000000     0.804900000000     0.739200000000     0          
C24      C      0.532000000000     0.853400000000     0.729100000000     0          
C25      C      0.532100000000     0.889200000000     0.768500000000     0          
C26      C      0.519800000000     0.765100000000     0.698300000000     0          
C27      C      0.521500000000     0.777700000000     0.645200000000     0          
C28      C      0.521500000000     0.733400000000     0.613500000000     0          
C29      C      0.503100000000     0.677800000000     0.683200000000     0          
H30      H      0.864850000000     0.955680000000     0.299150000000     0          
H31      H      0.687670000000     0.962790000000     0.366670000000     0          
H32      H      0.762620000000     0.972450000000     0.432380000000     0          
H33      H      0.632670000000     0.977340000000     0.319670000000     0          
H34      H      0.570380000000     0.975530000000     0.240580000000     0          
H35      H      0.697380000000     0.014540000000     0.140290000000     0          
Zr1      Zr     0.017020000000     0.592230000000     0.014350000000     0          
O2       O      0.070400000000     0.534500000000     0.050900000000     0          
C3       C      0.038400000000     0.631000000000     0.181100000000     0          
C4       C      0.018100000000     0.817400000000     0.367600000000     0          
C5       C      0.034900000000     0.596160000000     0.135420000000     0          
C6       C      0.007400000000     0.861030000000     0.402100000000     0          
O7       O      0.034910000000     0.618580000000     0.092090000000     0          
O8       O      0.033860000000     0.548610000000     0.144370000000     0          
O9       O      0.993820000000     0.902460000000     0.380310000000     0          
O10      O      0.014180000000     0.853630000000     0.449050000000     0          
C11      C      0.034400000000     0.683200000000     0.174000000000     0          
Cr12     Cr     0.002900000000     0.792000000000     0.205100000000     0          
C13      C      0.974800000000     0.855800000000     0.209500000000     0          
C14      C      0.988800000000     0.796100000000     0.137400000000     0          
C15      C      0.933300000000     0.773000000000     0.214100000000     0          
C16      C      0.074100000000     0.806200000000     0.195800000000     0          
O17      O      0.947900000000     0.895500000000     0.214100000000     0          
O18      O      0.983300000000     0.803800000000     0.090800000000     0          
O19      O      0.891000000000     0.774100000000     0.203000000000     0          
O20      O      0.117100000000     0.810800000000     0.188600000000     0          
N21      N      0.018700000000     0.714600000000     0.212700000000     0          
N22      N      0.009000000000     0.783200000000     0.283700000000     0          
C23      C      0.026000000000     0.695100000000     0.260800000000     0          
C24      C      0.032000000000     0.646600000000     0.270900000000     0          
C25      C      0.032100000000     0.610800000000     0.231500000000     0          
C26      C      0.019800000000     0.734900000000     0.301700000000     0          
C27      C      0.021500000000     0.722300000000     0.354800000000     0          
C28      C      0.021500000000     0.766600000000     0.386500000000     0          
C29      C      0.003100000000     0.822200000000     0.316800000000     0          
H30      H      0.364850000000     0.544320000000     0.700850000000     0          
H31      H      0.187670000000     0.537210000000     0.633330000000     0          
H32      H      0.262620000000     0.527550000000     0.567620000000     0          
H33      H      0.132670000000     0.522660000000     0.680330000000     0          
H34      H      0.070380000000     0.524470000000     0.759420000000     0          
H35      H      0.197380000000     0.485460000000     0.859710000000     0          


