data_QURNIC

_audit_creation_method RASPA-1.0
_audit_creation_date 2020-11-2
_audit_author_name 'Rocio Bueno-Perez'

_cell_length_a    26.0887
_cell_length_b    26.0887
_cell_length_c    26.0887
_cell_angle_alpha 90
_cell_angle_beta  90
_cell_angle_gamma 90
_cell_volume      17756.5

_symmetry_cell_setting          cubic
_symmetry_space_group_name_Hall 'P 1'
_symmetry_space_group_name_H-M  'P 1'
_symmetry_Int_Tables_number     1

_symmetry_equiv_pos_as_xyz 'x,y,z'

loop_
_atom_site_label
_atom_site_type_symbol
_atom_site_fract_x
_atom_site_fract_y
_atom_site_fract_z
_atom_site_charge
Zr1      Zr     0.515440000000     0.483550000000     0.408830000000     0          
Cu1      Cu     0.207510000000     0.480540000000     0.288430000000     0          
Cl1      Cl     0.144900000000     0.533100000000     0.289900000000     0          
Cl2      Cl     0.202800000000     0.462200000000     0.365750000000     0          
C1       C      0.303740000000     0.467650000000     0.231860000000     0          
C2       C      0.355060000000     0.456440000000     0.228400000000     0          
C3       C      0.386300000000     0.462840000000     0.270290000000     0          
C4       C      0.366210000000     0.480450000000     0.315660000000     0          
C5       C      0.314890000000     0.491670000000     0.319120000000     0          
N1       N      0.284430000000     0.485430000000     0.278270000000     0          
C6       C      0.264050000000     0.465980000000     0.200100000000     0          
C7       C      0.270720000000     0.449740000000     0.150470000000     0          
C8       C      0.229640000000     0.448000000000     0.117590000000     0          
C9       C      0.181890000000     0.462500000000     0.134350000000     0          
C10      C      0.175210000000     0.478740000000     0.183980000000     0          
N2       N      0.215280000000     0.480440000000     0.216040000000     0          
C11      C      0.399110000000     0.487190000000     0.359800000000     0          
O3       O      0.380580000000     0.503510000000     0.401660000000     0          
C12      C      0.138600000000     0.460680000000     0.099710000000     0          
H1       H      0.368960000000     0.444250000000     0.197020000000     0          
H2       H      0.421790000000     0.455080000000     0.267890000000     0          
H3       H      0.300990000000     0.503850000000     0.350500000000     0          
H4       H      0.303760000000     0.439710000000     0.138880000000     0          
H5       H      0.234260000000     0.436770000000     0.083260000000     0          
H6       H      0.142180000000     0.488770000000     0.195580000000     0          
O8?      O      0.553560000000     0.430320000000     0.471710000000     0          
O10?     O      0.452000000000     0.494600000000     0.353000000000     0          
O11?     O      0.087000000000     0.464500000000     0.130200000000     0          
O12?     O      0.153900000000     0.468500000000     0.042100000000     0          
O7?      O      0.446100000000     0.446100000000     0.446100000000     0          
Zr1      Zr     0.984560000000     0.516450000000     0.908830000000     0          
Cu1      Cu     0.292490000000     0.519460000000     0.788430000000     0          
Cl1      Cl     0.355100000000     0.466900000000     0.789900000000     0          
Cl2      Cl     0.297200000000     0.537800000000     0.865750000000     0          
C1       C      0.196260000000     0.532350000000     0.731860000000     0          
C2       C      0.144940000000     0.543560000000     0.728400000000     0          
C3       C      0.113700000000     0.537160000000     0.770290000000     0          
C4       C      0.133790000000     0.519550000000     0.815660000000     0          
C5       C      0.185110000000     0.508330000000     0.819120000000     0          
N1       N      0.215570000000     0.514570000000     0.778270000000     0          
C6       C      0.235950000000     0.534020000000     0.700100000000     0          
C7       C      0.229280000000     0.550260000000     0.650470000000     0          
C8       C      0.270360000000     0.552000000000     0.617590000000     0          
C9       C      0.318110000000     0.537500000000     0.634350000000     0          
C10      C      0.324790000000     0.521260000000     0.683980000000     0          
N2       N      0.284720000000     0.519560000000     0.716040000000     0          
C11      C      0.100890000000     0.512810000000     0.859800000000     0          
O3       O      0.119420000000     0.496490000000     0.901660000000     0          
C12      C      0.361400000000     0.539320000000     0.599710000000     0          
H1       H      0.131040000000     0.555750000000     0.697020000000     0          
H2       H      0.078210000000     0.544920000000     0.767890000000     0          
H3       H      0.199010000000     0.496150000000     0.850500000000     0          
H4       H      0.196240000000     0.560290000000     0.638880000000     0          
H5       H      0.265740000000     0.563230000000     0.583260000000     0          
H6       H      0.357820000000     0.511230000000     0.695580000000     0          
O8?      O      0.946440000000     0.569680000000     0.971710000000     0          
O10?     O      0.048000000000     0.505400000000     0.853000000000     0          
O11?     O      0.413000000000     0.535500000000     0.630200000000     0          
O12?     O      0.346100000000     0.531500000000     0.542100000000     0          
O7?      O      0.053900000000     0.553900000000     0.946100000000     0          
Zr1      Zr     0.015440000000     0.016450000000     0.591170000000     0          
Cu1      Cu     0.707510000000     0.019460000000     0.711570000000     0          
Cl1      Cl     0.644900000000     0.966900000000     0.710100000000     0          
Cl2      Cl     0.702800000000     0.037800000000     0.634250000000     0          
C1       C      0.803740000000     0.032350000000     0.768140000000     0          
C2       C      0.855060000000     0.043560000000     0.771600000000     0          
C3       C      0.886300000000     0.037160000000     0.729710000000     0          
C4       C      0.866210000000     0.019550000000     0.684340000000     0          
C5       C      0.814890000000     0.008330000000     0.680880000000     0          
N1       N      0.784430000000     0.014570000000     0.721730000000     0          
C6       C      0.764050000000     0.034020000000     0.799900000000     0          
C7       C      0.770720000000     0.050260000000     0.849530000000     0          
C8       C      0.729640000000     0.052000000000     0.882410000000     0          
C9       C      0.681890000000     0.037500000000     0.865650000000     0          
C10      C      0.675210000000     0.021260000000     0.816020000000     0          
N2       N      0.715280000000     0.019560000000     0.783960000000     0          
C11      C      0.899110000000     0.012810000000     0.640200000000     0          
O3       O      0.880580000000     0.996490000000     0.598340000000     0          
C12      C      0.638600000000     0.039320000000     0.900290000000     0          
H1       H      0.868960000000     0.055750000000     0.802980000000     0          
H2       H      0.921790000000     0.044920000000     0.732110000000     0          
H3       H      0.800990000000     0.996150000000     0.649500000000     0          
H4       H      0.803760000000     0.060290000000     0.861120000000     0          
H5       H      0.734260000000     0.063230000000     0.916740000000     0          
H6       H      0.642180000000     0.011230000000     0.804420000000     0          
O8?      O      0.053560000000     0.069680000000     0.528290000000     0          
O10?     O      0.952000000000     0.005400000000     0.647000000000     0          
O11?     O      0.587000000000     0.035500000000     0.869800000000     0          
O12?     O      0.653900000000     0.031500000000     0.957900000000     0          
O7?      O      0.946100000000     0.053900000000     0.553900000000     0          
Zr1      Zr     0.484560000000     0.983550000000     0.091170000000     0          
Cu1      Cu     0.792490000000     0.980540000000     0.211570000000     0          
Cl1      Cl     0.855100000000     0.033100000000     0.210100000000     0          
Cl2      Cl     0.797200000000     0.962200000000     0.134250000000     0          
C1       C      0.696260000000     0.967650000000     0.268140000000     0          
C2       C      0.644940000000     0.956440000000     0.271600000000     0          
C3       C      0.613700000000     0.962840000000     0.229710000000     0          
C4       C      0.633790000000     0.980450000000     0.184340000000     0          
C5       C      0.685110000000     0.991670000000     0.180880000000     0          
N1       N      0.715570000000     0.985430000000     0.221730000000     0          
C6       C      0.735950000000     0.965980000000     0.299900000000     0          
C7       C      0.729280000000     0.949740000000     0.349530000000     0          
C8       C      0.770360000000     0.948000000000     0.382410000000     0          
C9       C      0.818110000000     0.962500000000     0.365650000000     0          
C10      C      0.824790000000     0.978740000000     0.316020000000     0          
N2       N      0.784720000000     0.980440000000     0.283960000000     0          
C11      C      0.600890000000     0.987190000000     0.140200000000     0          
O3       O      0.619420000000     0.003510000000     0.098340000000     0          
C12      C      0.861400000000     0.960680000000     0.400290000000     0          
H1       H      0.631040000000     0.944250000000     0.302980000000     0          
H2       H      0.578210000000     0.955080000000     0.232110000000     0          
H3       H      0.699010000000     0.003850000000     0.149500000000     0          
H4       H      0.696240000000     0.939710000000     0.361120000000     0          
H5       H      0.765740000000     0.936770000000     0.416740000000     0          
H6       H      0.857820000000     0.988770000000     0.304420000000     0          
O8?      O      0.446440000000     0.930320000000     0.028290000000     0          
O10?     O      0.548000000000     0.994600000000     0.147000000000     0          
O11?     O      0.913000000000     0.964500000000     0.369800000000     0          
O12?     O      0.846100000000     0.968500000000     0.457900000000     0          
O7?      O      0.553900000000     0.946100000000     0.053900000000     0          
Zr1      Zr     0.408830000000     0.515440000000     0.483550000000     0          
Cu1      Cu     0.288430000000     0.207510000000     0.480540000000     0          
Cl1      Cl     0.289900000000     0.144900000000     0.533100000000     0          
Cl2      Cl     0.365750000000     0.202800000000     0.462200000000     0          
C1       C      0.231860000000     0.303740000000     0.467650000000     0          
C2       C      0.228400000000     0.355060000000     0.456440000000     0          
C3       C      0.270290000000     0.386300000000     0.462840000000     0          
C4       C      0.315660000000     0.366210000000     0.480450000000     0          
C5       C      0.319120000000     0.314890000000     0.491670000000     0          
N1       N      0.278270000000     0.284430000000     0.485430000000     0          
C6       C      0.200100000000     0.264050000000     0.465980000000     0          
C7       C      0.150470000000     0.270720000000     0.449740000000     0          
C8       C      0.117590000000     0.229640000000     0.448000000000     0          
C9       C      0.134350000000     0.181890000000     0.462500000000     0          
C10      C      0.183980000000     0.175210000000     0.478740000000     0          
N2       N      0.216040000000     0.215280000000     0.480440000000     0          
C11      C      0.359800000000     0.399110000000     0.487190000000     0          
O3       O      0.401660000000     0.380580000000     0.503510000000     0          
C12      C      0.099710000000     0.138600000000     0.460680000000     0          
H1       H      0.197020000000     0.368960000000     0.444250000000     0          
H2       H      0.267890000000     0.421790000000     0.455080000000     0          
H3       H      0.350500000000     0.300990000000     0.503850000000     0          
H4       H      0.138880000000     0.303760000000     0.439710000000     0          
H5       H      0.083260000000     0.234260000000     0.436770000000     0          
H6       H      0.195580000000     0.142180000000     0.488770000000     0          
O8?      O      0.471710000000     0.553560000000     0.430320000000     0          
O10?     O      0.353000000000     0.452000000000     0.494600000000     0          
O11?     O      0.130200000000     0.087000000000     0.464500000000     0          
O12?     O      0.042100000000     0.153900000000     0.468500000000     0          
Zr1      Zr     0.091170000000     0.484560000000     0.983550000000     0          
Cu1      Cu     0.211570000000     0.792490000000     0.980540000000     0          
Cl1      Cl     0.210100000000     0.855100000000     0.033100000000     0          
Cl2      Cl     0.134250000000     0.797200000000     0.962200000000     0          
C1       C      0.268140000000     0.696260000000     0.967650000000     0          
C2       C      0.271600000000     0.644940000000     0.956440000000     0          
C3       C      0.229710000000     0.613700000000     0.962840000000     0          
C4       C      0.184340000000     0.633790000000     0.980450000000     0          
C5       C      0.180880000000     0.685110000000     0.991670000000     0          
N1       N      0.221730000000     0.715570000000     0.985430000000     0          
C6       C      0.299900000000     0.735950000000     0.965980000000     0          
C7       C      0.349530000000     0.729280000000     0.949740000000     0          
C8       C      0.382410000000     0.770360000000     0.948000000000     0          
C9       C      0.365650000000     0.818110000000     0.962500000000     0          
C10      C      0.316020000000     0.824790000000     0.978740000000     0          
N2       N      0.283960000000     0.784720000000     0.980440000000     0          
C11      C      0.140200000000     0.600890000000     0.987190000000     0          
O3       O      0.098340000000     0.619420000000     0.003510000000     0          
C12      C      0.400290000000     0.861400000000     0.960680000000     0          
H1       H      0.302980000000     0.631040000000     0.944250000000     0          
H2       H      0.232110000000     0.578210000000     0.955080000000     0          
H3       H      0.149500000000     0.699010000000     0.003850000000     0          
H4       H      0.361120000000     0.696240000000     0.939710000000     0          
H5       H      0.416740000000     0.765740000000     0.936770000000     0          
H6       H      0.304420000000     0.857820000000     0.988770000000     0          
O8?      O      0.028290000000     0.446440000000     0.930320000000     0          
O10?     O      0.147000000000     0.548000000000     0.994600000000     0          
O11?     O      0.369800000000     0.913000000000     0.964500000000     0          
O12?     O      0.457900000000     0.846100000000     0.968500000000     0          
Zr1      Zr     0.908830000000     0.984560000000     0.516450000000     0          
Cu1      Cu     0.788430000000     0.292490000000     0.519460000000     0          
Cl1      Cl     0.789900000000     0.355100000000     0.466900000000     0          
Cl2      Cl     0.865750000000     0.297200000000     0.537800000000     0          
C1       C      0.731860000000     0.196260000000     0.532350000000     0          
C2       C      0.728400000000     0.144940000000     0.543560000000     0          
C3       C      0.770290000000     0.113700000000     0.537160000000     0          
C4       C      0.815660000000     0.133790000000     0.519550000000     0          
C5       C      0.819120000000     0.185110000000     0.508330000000     0          
N1       N      0.778270000000     0.215570000000     0.514570000000     0          
C6       C      0.700100000000     0.235950000000     0.534020000000     0          
C7       C      0.650470000000     0.229280000000     0.550260000000     0          
C8       C      0.617590000000     0.270360000000     0.552000000000     0          
C9       C      0.634350000000     0.318110000000     0.537500000000     0          
C10      C      0.683980000000     0.324790000000     0.521260000000     0          
N2       N      0.716040000000     0.284720000000     0.519560000000     0          
C11      C      0.859800000000     0.100890000000     0.512810000000     0          
O3       O      0.901660000000     0.119420000000     0.496490000000     0          
C12      C      0.599710000000     0.361400000000     0.539320000000     0          
H1       H      0.697020000000     0.131040000000     0.555750000000     0          
H2       H      0.767890000000     0.078210000000     0.544920000000     0          
H3       H      0.850500000000     0.199010000000     0.496150000000     0          
H4       H      0.638880000000     0.196240000000     0.560290000000     0          
H5       H      0.583260000000     0.265740000000     0.563230000000     0          
H6       H      0.695580000000     0.357820000000     0.511230000000     0          
O8?      O      0.971710000000     0.946440000000     0.569680000000     0          
O10?     O      0.853000000000     0.048000000000     0.505400000000     0          
O11?     O      0.630200000000     0.413000000000     0.535500000000     0          
O12?     O      0.542100000000     0.346100000000     0.531500000000     0          
Zr1      Zr     0.591170000000     0.015440000000     0.016450000000     0          
Cu1      Cu     0.711570000000     0.707510000000     0.019460000000     0          
Cl1      Cl     0.710100000000     0.644900000000     0.966900000000     0          
Cl2      Cl     0.634250000000     0.702800000000     0.037800000000     0          
C1       C      0.768140000000     0.803740000000     0.032350000000     0          
C2       C      0.771600000000     0.855060000000     0.043560000000     0          
C3       C      0.729710000000     0.886300000000     0.037160000000     0          
C4       C      0.684340000000     0.866210000000     0.019550000000     0          
C5       C      0.680880000000     0.814890000000     0.008330000000     0          
N1       N      0.721730000000     0.784430000000     0.014570000000     0          
C6       C      0.799900000000     0.764050000000     0.034020000000     0          
C7       C      0.849530000000     0.770720000000     0.050260000000     0          
C8       C      0.882410000000     0.729640000000     0.052000000000     0          
C9       C      0.865650000000     0.681890000000     0.037500000000     0          
C10      C      0.816020000000     0.675210000000     0.021260000000     0          
N2       N      0.783960000000     0.715280000000     0.019560000000     0          
C11      C      0.640200000000     0.899110000000     0.012810000000     0          
O3       O      0.598340000000     0.880580000000     0.996490000000     0          
C12      C      0.900290000000     0.638600000000     0.039320000000     0          
H1       H      0.802980000000     0.868960000000     0.055750000000     0          
H2       H      0.732110000000     0.921790000000     0.044920000000     0          
H3       H      0.649500000000     0.800990000000     0.996150000000     0          
H4       H      0.861120000000     0.803760000000     0.060290000000     0          
H5       H      0.916740000000     0.734260000000     0.063230000000     0          
H6       H      0.804420000000     0.642180000000     0.011230000000     0          
O8?      O      0.528290000000     0.053560000000     0.069680000000     0          
O10?     O      0.647000000000     0.952000000000     0.005400000000     0          
O11?     O      0.869800000000     0.587000000000     0.035500000000     0          
O12?     O      0.957900000000     0.653900000000     0.031500000000     0          
Zr1      Zr     0.483550000000     0.408830000000     0.515440000000     0          
Cu1      Cu     0.480540000000     0.288430000000     0.207510000000     0          
Cl1      Cl     0.533100000000     0.289900000000     0.144900000000     0          
Cl2      Cl     0.462200000000     0.365750000000     0.202800000000     0          
C1       C      0.467650000000     0.231860000000     0.303740000000     0          
C2       C      0.456440000000     0.228400000000     0.355060000000     0          
C3       C      0.462840000000     0.270290000000     0.386300000000     0          
C4       C      0.480450000000     0.315660000000     0.366210000000     0          
C5       C      0.491670000000     0.319120000000     0.314890000000     0          
N1       N      0.485430000000     0.278270000000     0.284430000000     0          
C6       C      0.465980000000     0.200100000000     0.264050000000     0          
C7       C      0.449740000000     0.150470000000     0.270720000000     0          
C8       C      0.448000000000     0.117590000000     0.229640000000     0          
C9       C      0.462500000000     0.134350000000     0.181890000000     0          
C10      C      0.478740000000     0.183980000000     0.175210000000     0          
N2       N      0.480440000000     0.216040000000     0.215280000000     0          
C11      C      0.487190000000     0.359800000000     0.399110000000     0          
O3       O      0.503510000000     0.401660000000     0.380580000000     0          
C12      C      0.460680000000     0.099710000000     0.138600000000     0          
H1       H      0.444250000000     0.197020000000     0.368960000000     0          
H2       H      0.455080000000     0.267890000000     0.421790000000     0          
H3       H      0.503850000000     0.350500000000     0.300990000000     0          
H4       H      0.439710000000     0.138880000000     0.303760000000     0          
H5       H      0.436770000000     0.083260000000     0.234260000000     0          
H6       H      0.488770000000     0.195580000000     0.142180000000     0          
O8?      O      0.430320000000     0.471710000000     0.553560000000     0          
O10?     O      0.494600000000     0.353000000000     0.452000000000     0          
O11?     O      0.464500000000     0.130200000000     0.087000000000     0          
O12?     O      0.468500000000     0.042100000000     0.153900000000     0          
Zr1      Zr     0.983550000000     0.091170000000     0.484560000000     0          
Cu1      Cu     0.980540000000     0.211570000000     0.792490000000     0          
Cl1      Cl     0.033100000000     0.210100000000     0.855100000000     0          
Cl2      Cl     0.962200000000     0.134250000000     0.797200000000     0          
C1       C      0.967650000000     0.268140000000     0.696260000000     0          
C2       C      0.956440000000     0.271600000000     0.644940000000     0          
C3       C      0.962840000000     0.229710000000     0.613700000000     0          
C4       C      0.980450000000     0.184340000000     0.633790000000     0          
C5       C      0.991670000000     0.180880000000     0.685110000000     0          
N1       N      0.985430000000     0.221730000000     0.715570000000     0          
C6       C      0.965980000000     0.299900000000     0.735950000000     0          
C7       C      0.949740000000     0.349530000000     0.729280000000     0          
C8       C      0.948000000000     0.382410000000     0.770360000000     0          
C9       C      0.962500000000     0.365650000000     0.818110000000     0          
C10      C      0.978740000000     0.316020000000     0.824790000000     0          
N2       N      0.980440000000     0.283960000000     0.784720000000     0          
C11      C      0.987190000000     0.140200000000     0.600890000000     0          
O3       O      0.003510000000     0.098340000000     0.619420000000     0          
C12      C      0.960680000000     0.400290000000     0.861400000000     0          
H1       H      0.944250000000     0.302980000000     0.631040000000     0          
H2       H      0.955080000000     0.232110000000     0.578210000000     0          
H3       H      0.003850000000     0.149500000000     0.699010000000     0          
H4       H      0.939710000000     0.361120000000     0.696240000000     0          
H5       H      0.936770000000     0.416740000000     0.765740000000     0          
H6       H      0.988770000000     0.304420000000     0.857820000000     0          
O8?      O      0.930320000000     0.028290000000     0.446440000000     0          
O10?     O      0.994600000000     0.147000000000     0.548000000000     0          
O11?     O      0.964500000000     0.369800000000     0.913000000000     0          
O12?     O      0.968500000000     0.457900000000     0.846100000000     0          
Zr1      Zr     0.516450000000     0.908830000000     0.984560000000     0          
Cu1      Cu     0.519460000000     0.788430000000     0.292490000000     0          
Cl1      Cl     0.466900000000     0.789900000000     0.355100000000     0          
Cl2      Cl     0.537800000000     0.865750000000     0.297200000000     0          
C1       C      0.532350000000     0.731860000000     0.196260000000     0          
C2       C      0.543560000000     0.728400000000     0.144940000000     0          
C3       C      0.537160000000     0.770290000000     0.113700000000     0          
C4       C      0.519550000000     0.815660000000     0.133790000000     0          
C5       C      0.508330000000     0.819120000000     0.185110000000     0          
N1       N      0.514570000000     0.778270000000     0.215570000000     0          
C6       C      0.534020000000     0.700100000000     0.235950000000     0          
C7       C      0.550260000000     0.650470000000     0.229280000000     0          
C8       C      0.552000000000     0.617590000000     0.270360000000     0          
C9       C      0.537500000000     0.634350000000     0.318110000000     0          
C10      C      0.521260000000     0.683980000000     0.324790000000     0          
N2       N      0.519560000000     0.716040000000     0.284720000000     0          
C11      C      0.512810000000     0.859800000000     0.100890000000     0          
O3       O      0.496490000000     0.901660000000     0.119420000000     0          
C12      C      0.539320000000     0.599710000000     0.361400000000     0          
H1       H      0.555750000000     0.697020000000     0.131040000000     0          
H2       H      0.544920000000     0.767890000000     0.078210000000     0          
H3       H      0.496150000000     0.850500000000     0.199010000000     0          
H4       H      0.560290000000     0.638880000000     0.196240000000     0          
H5       H      0.563230000000     0.583260000000     0.265740000000     0          
H6       H      0.511230000000     0.695580000000     0.357820000000     0          
O8?      O      0.569680000000     0.971710000000     0.946440000000     0          
O10?     O      0.505400000000     0.853000000000     0.048000000000     0          
O11?     O      0.535500000000     0.630200000000     0.413000000000     0          
O12?     O      0.531500000000     0.542100000000     0.346100000000     0          
Zr1      Zr     0.016450000000     0.591170000000     0.015440000000     0          
Cu1      Cu     0.019460000000     0.711570000000     0.707510000000     0          
Cl1      Cl     0.966900000000     0.710100000000     0.644900000000     0          
Cl2      Cl     0.037800000000     0.634250000000     0.702800000000     0          
C1       C      0.032350000000     0.768140000000     0.803740000000     0          
C2       C      0.043560000000     0.771600000000     0.855060000000     0          
C3       C      0.037160000000     0.729710000000     0.886300000000     0          
C4       C      0.019550000000     0.684340000000     0.866210000000     0          
C5       C      0.008330000000     0.680880000000     0.814890000000     0          
N1       N      0.014570000000     0.721730000000     0.784430000000     0          
C6       C      0.034020000000     0.799900000000     0.764050000000     0          
C7       C      0.050260000000     0.849530000000     0.770720000000     0          
C8       C      0.052000000000     0.882410000000     0.729640000000     0          
C9       C      0.037500000000     0.865650000000     0.681890000000     0          
C10      C      0.021260000000     0.816020000000     0.675210000000     0          
N2       N      0.019560000000     0.783960000000     0.715280000000     0          
C11      C      0.012810000000     0.640200000000     0.899110000000     0          
O3       O      0.996490000000     0.598340000000     0.880580000000     0          
C12      C      0.039320000000     0.900290000000     0.638600000000     0          
H1       H      0.055750000000     0.802980000000     0.868960000000     0          
H2       H      0.044920000000     0.732110000000     0.921790000000     0          
H3       H      0.996150000000     0.649500000000     0.800990000000     0          
H4       H      0.060290000000     0.861120000000     0.803760000000     0          
H5       H      0.063230000000     0.916740000000     0.734260000000     0          
H6       H      0.011230000000     0.804420000000     0.642180000000     0          
O8?      O      0.069680000000     0.528290000000     0.053560000000     0          
O10?     O      0.005400000000     0.647000000000     0.952000000000     0          
O11?     O      0.035500000000     0.869800000000     0.587000000000     0          
O12?     O      0.031500000000     0.957900000000     0.653900000000     0          
Zr1      Zr     0.484560000000     0.516450000000     0.591170000000     0          
Cu1      Cu     0.792490000000     0.519460000000     0.711570000000     0          
Cl1      Cl     0.855100000000     0.466900000000     0.710100000000     0          
Cl2      Cl     0.797200000000     0.537800000000     0.634250000000     0          
C1       C      0.696260000000     0.532350000000     0.768140000000     0          
C2       C      0.644940000000     0.543560000000     0.771600000000     0          
C3       C      0.613700000000     0.537160000000     0.729710000000     0          
C4       C      0.633790000000     0.519550000000     0.684340000000     0          
C5       C      0.685110000000     0.508330000000     0.680880000000     0          
N1       N      0.715570000000     0.514570000000     0.721730000000     0          
C6       C      0.735950000000     0.534020000000     0.799900000000     0          
C7       C      0.729280000000     0.550260000000     0.849530000000     0          
C8       C      0.770360000000     0.552000000000     0.882410000000     0          
C9       C      0.818110000000     0.537500000000     0.865650000000     0          
C10      C      0.824790000000     0.521260000000     0.816020000000     0          
N2       N      0.784720000000     0.519560000000     0.783960000000     0          
C11      C      0.600890000000     0.512810000000     0.640200000000     0          
O3       O      0.619420000000     0.496490000000     0.598340000000     0          
C12      C      0.861400000000     0.539320000000     0.900290000000     0          
H1       H      0.631040000000     0.555750000000     0.802980000000     0          
H2       H      0.578210000000     0.544920000000     0.732110000000     0          
H3       H      0.699010000000     0.496150000000     0.649500000000     0          
H4       H      0.696240000000     0.560290000000     0.861120000000     0          
H5       H      0.765740000000     0.563230000000     0.916740000000     0          
H6       H      0.857820000000     0.511230000000     0.804420000000     0          
O8?      O      0.446440000000     0.569680000000     0.528290000000     0          
O10?     O      0.548000000000     0.505400000000     0.647000000000     0          
O11?     O      0.913000000000     0.535500000000     0.869800000000     0          
O12?     O      0.846100000000     0.531500000000     0.957900000000     0          
O7?      O      0.553900000000     0.553900000000     0.553900000000     0          
Zr1      Zr     0.015440000000     0.483550000000     0.091170000000     0          
Cu1      Cu     0.707510000000     0.480540000000     0.211570000000     0          
Cl1      Cl     0.644900000000     0.533100000000     0.210100000000     0          
Cl2      Cl     0.702800000000     0.462200000000     0.134250000000     0          
C1       C      0.803740000000     0.467650000000     0.268140000000     0          
C2       C      0.855060000000     0.456440000000     0.271600000000     0          
C3       C      0.886300000000     0.462840000000     0.229710000000     0          
C4       C      0.866210000000     0.480450000000     0.184340000000     0          
C5       C      0.814890000000     0.491670000000     0.180880000000     0          
N1       N      0.784430000000     0.485430000000     0.221730000000     0          
C6       C      0.764050000000     0.465980000000     0.299900000000     0          
C7       C      0.770720000000     0.449740000000     0.349530000000     0          
C8       C      0.729640000000     0.448000000000     0.382410000000     0          
C9       C      0.681890000000     0.462500000000     0.365650000000     0          
C10      C      0.675210000000     0.478740000000     0.316020000000     0          
N2       N      0.715280000000     0.480440000000     0.283960000000     0          
C11      C      0.899110000000     0.487190000000     0.140200000000     0          
O3       O      0.880580000000     0.503510000000     0.098340000000     0          
C12      C      0.638600000000     0.460680000000     0.400290000000     0          
H1       H      0.868960000000     0.444250000000     0.302980000000     0          
H2       H      0.921790000000     0.455080000000     0.232110000000     0          
H3       H      0.800990000000     0.503850000000     0.149500000000     0          
H4       H      0.803760000000     0.439710000000     0.361120000000     0          
H5       H      0.734260000000     0.436770000000     0.416740000000     0          
H6       H      0.642180000000     0.488770000000     0.304420000000     0          
O8?      O      0.053560000000     0.430320000000     0.028290000000     0          
O10?     O      0.952000000000     0.494600000000     0.147000000000     0          
O11?     O      0.587000000000     0.464500000000     0.369800000000     0          
O12?     O      0.653900000000     0.468500000000     0.457900000000     0          
O7?      O      0.946100000000     0.446100000000     0.053900000000     0          
Zr1      Zr     0.984560000000     0.983550000000     0.408830000000     0          
Cu1      Cu     0.292490000000     0.980540000000     0.288430000000     0          
Cl1      Cl     0.355100000000     0.033100000000     0.289900000000     0          
Cl2      Cl     0.297200000000     0.962200000000     0.365750000000     0          
C1       C      0.196260000000     0.967650000000     0.231860000000     0          
C2       C      0.144940000000     0.956440000000     0.228400000000     0          
C3       C      0.113700000000     0.962840000000     0.270290000000     0          
C4       C      0.133790000000     0.980450000000     0.315660000000     0          
C5       C      0.185110000000     0.991670000000     0.319120000000     0          
N1       N      0.215570000000     0.985430000000     0.278270000000     0          
C6       C      0.235950000000     0.965980000000     0.200100000000     0          
C7       C      0.229280000000     0.949740000000     0.150470000000     0          
C8       C      0.270360000000     0.948000000000     0.117590000000     0          
C9       C      0.318110000000     0.962500000000     0.134350000000     0          
C10      C      0.324790000000     0.978740000000     0.183980000000     0          
N2       N      0.284720000000     0.980440000000     0.216040000000     0          
C11      C      0.100890000000     0.987190000000     0.359800000000     0          
O3       O      0.119420000000     0.003510000000     0.401660000000     0          
C12      C      0.361400000000     0.960680000000     0.099710000000     0          
H1       H      0.131040000000     0.944250000000     0.197020000000     0          
H2       H      0.078210000000     0.955080000000     0.267890000000     0          
H3       H      0.199010000000     0.003850000000     0.350500000000     0          
H4       H      0.196240000000     0.939710000000     0.138880000000     0          
H5       H      0.265740000000     0.936770000000     0.083260000000     0          
H6       H      0.357820000000     0.988770000000     0.195580000000     0          
O8?      O      0.946440000000     0.930320000000     0.471710000000     0          
O10?     O      0.048000000000     0.994600000000     0.353000000000     0          
O11?     O      0.413000000000     0.964500000000     0.130200000000     0          
O12?     O      0.346100000000     0.968500000000     0.042100000000     0          
O7?      O      0.053900000000     0.946100000000     0.446100000000     0          
Zr1      Zr     0.515440000000     0.016450000000     0.908830000000     0          
Cu1      Cu     0.207510000000     0.019460000000     0.788430000000     0          
Cl1      Cl     0.144900000000     0.966900000000     0.789900000000     0          
Cl2      Cl     0.202800000000     0.037800000000     0.865750000000     0          
C1       C      0.303740000000     0.032350000000     0.731860000000     0          
C2       C      0.355060000000     0.043560000000     0.728400000000     0          
C3       C      0.386300000000     0.037160000000     0.770290000000     0          
C4       C      0.366210000000     0.019550000000     0.815660000000     0          
C5       C      0.314890000000     0.008330000000     0.819120000000     0          
N1       N      0.284430000000     0.014570000000     0.778270000000     0          
C6       C      0.264050000000     0.034020000000     0.700100000000     0          
C7       C      0.270720000000     0.050260000000     0.650470000000     0          
C8       C      0.229640000000     0.052000000000     0.617590000000     0          
C9       C      0.181890000000     0.037500000000     0.634350000000     0          
C10      C      0.175210000000     0.021260000000     0.683980000000     0          
N2       N      0.215280000000     0.019560000000     0.716040000000     0          
C11      C      0.399110000000     0.012810000000     0.859800000000     0          
O3       O      0.380580000000     0.996490000000     0.901660000000     0          
C12      C      0.138600000000     0.039320000000     0.599710000000     0          
H1       H      0.368960000000     0.055750000000     0.697020000000     0          
H2       H      0.421790000000     0.044920000000     0.767890000000     0          
H3       H      0.300990000000     0.996150000000     0.850500000000     0          
H4       H      0.303760000000     0.060290000000     0.638880000000     0          
H5       H      0.234260000000     0.063230000000     0.583260000000     0          
H6       H      0.142180000000     0.011230000000     0.695580000000     0          
O8?      O      0.553560000000     0.069680000000     0.971710000000     0          
O10?     O      0.452000000000     0.005400000000     0.853000000000     0          
O11?     O      0.087000000000     0.035500000000     0.630200000000     0          
O12?     O      0.153900000000     0.031500000000     0.542100000000     0          
O7?      O      0.446100000000     0.053900000000     0.946100000000     0          
Zr1      Zr     0.591170000000     0.484560000000     0.516450000000     0          
Cu1      Cu     0.711570000000     0.792490000000     0.519460000000     0          
Cl1      Cl     0.710100000000     0.855100000000     0.466900000000     0          
Cl2      Cl     0.634250000000     0.797200000000     0.537800000000     0          
C1       C      0.768140000000     0.696260000000     0.532350000000     0          
C2       C      0.771600000000     0.644940000000     0.543560000000     0          
C3       C      0.729710000000     0.613700000000     0.537160000000     0          
C4       C      0.684340000000     0.633790000000     0.519550000000     0          
C5       C      0.680880000000     0.685110000000     0.508330000000     0          
N1       N      0.721730000000     0.715570000000     0.514570000000     0          
C6       C      0.799900000000     0.735950000000     0.534020000000     0          
C7       C      0.849530000000     0.729280000000     0.550260000000     0          
C8       C      0.882410000000     0.770360000000     0.552000000000     0          
C9       C      0.865650000000     0.818110000000     0.537500000000     0          
C10      C      0.816020000000     0.824790000000     0.521260000000     0          
N2       N      0.783960000000     0.784720000000     0.519560000000     0          
C11      C      0.640200000000     0.600890000000     0.512810000000     0          
O3       O      0.598340000000     0.619420000000     0.496490000000     0          
C12      C      0.900290000000     0.861400000000     0.539320000000     0          
H1       H      0.802980000000     0.631040000000     0.555750000000     0          
H2       H      0.732110000000     0.578210000000     0.544920000000     0          
H3       H      0.649500000000     0.699010000000     0.496150000000     0          
H4       H      0.861120000000     0.696240000000     0.560290000000     0          
H5       H      0.916740000000     0.765740000000     0.563230000000     0          
H6       H      0.804420000000     0.857820000000     0.511230000000     0          
O8?      O      0.528290000000     0.446440000000     0.569680000000     0          
O10?     O      0.647000000000     0.548000000000     0.505400000000     0          
O11?     O      0.869800000000     0.913000000000     0.535500000000     0          
O12?     O      0.957900000000     0.846100000000     0.531500000000     0          
Zr1      Zr     0.908830000000     0.515440000000     0.016450000000     0          
Cu1      Cu     0.788430000000     0.207510000000     0.019460000000     0          
Cl1      Cl     0.789900000000     0.144900000000     0.966900000000     0          
Cl2      Cl     0.865750000000     0.202800000000     0.037800000000     0          
C1       C      0.731860000000     0.303740000000     0.032350000000     0          
C2       C      0.728400000000     0.355060000000     0.043560000000     0          
C3       C      0.770290000000     0.386300000000     0.037160000000     0          
C4       C      0.815660000000     0.366210000000     0.019550000000     0          
C5       C      0.819120000000     0.314890000000     0.008330000000     0          
N1       N      0.778270000000     0.284430000000     0.014570000000     0          
C6       C      0.700100000000     0.264050000000     0.034020000000     0          
C7       C      0.650470000000     0.270720000000     0.050260000000     0          
C8       C      0.617590000000     0.229640000000     0.052000000000     0          
C9       C      0.634350000000     0.181890000000     0.037500000000     0          
C10      C      0.683980000000     0.175210000000     0.021260000000     0          
N2       N      0.716040000000     0.215280000000     0.019560000000     0          
C11      C      0.859800000000     0.399110000000     0.012810000000     0          
O3       O      0.901660000000     0.380580000000     0.996490000000     0          
C12      C      0.599710000000     0.138600000000     0.039320000000     0          
H1       H      0.697020000000     0.368960000000     0.055750000000     0          
H2       H      0.767890000000     0.421790000000     0.044920000000     0          
H3       H      0.850500000000     0.300990000000     0.996150000000     0          
H4       H      0.638880000000     0.303760000000     0.060290000000     0          
H5       H      0.583260000000     0.234260000000     0.063230000000     0          
H6       H      0.695580000000     0.142180000000     0.011230000000     0          
O8?      O      0.971710000000     0.553560000000     0.069680000000     0          
O10?     O      0.853000000000     0.452000000000     0.005400000000     0          
O11?     O      0.630200000000     0.087000000000     0.035500000000     0          
O12?     O      0.542100000000     0.153900000000     0.031500000000     0          
Zr1      Zr     0.091170000000     0.015440000000     0.483550000000     0          
Cu1      Cu     0.211570000000     0.707510000000     0.480540000000     0          
Cl1      Cl     0.210100000000     0.644900000000     0.533100000000     0          
Cl2      Cl     0.134250000000     0.702800000000     0.462200000000     0          
C1       C      0.268140000000     0.803740000000     0.467650000000     0          
C2       C      0.271600000000     0.855060000000     0.456440000000     0          
C3       C      0.229710000000     0.886300000000     0.462840000000     0          
C4       C      0.184340000000     0.866210000000     0.480450000000     0          
C5       C      0.180880000000     0.814890000000     0.491670000000     0          
N1       N      0.221730000000     0.784430000000     0.485430000000     0          
C6       C      0.299900000000     0.764050000000     0.465980000000     0          
C7       C      0.349530000000     0.770720000000     0.449740000000     0          
C8       C      0.382410000000     0.729640000000     0.448000000000     0          
C9       C      0.365650000000     0.681890000000     0.462500000000     0          
C10      C      0.316020000000     0.675210000000     0.478740000000     0          
N2       N      0.283960000000     0.715280000000     0.480440000000     0          
C11      C      0.140200000000     0.899110000000     0.487190000000     0          
O3       O      0.098340000000     0.880580000000     0.503510000000     0          
C12      C      0.400290000000     0.638600000000     0.460680000000     0          
H1       H      0.302980000000     0.868960000000     0.444250000000     0          
H2       H      0.232110000000     0.921790000000     0.455080000000     0          
H3       H      0.149500000000     0.800990000000     0.503850000000     0          
H4       H      0.361120000000     0.803760000000     0.439710000000     0          
H5       H      0.416740000000     0.734260000000     0.436770000000     0          
H6       H      0.304420000000     0.642180000000     0.488770000000     0          
O8?      O      0.028290000000     0.053560000000     0.430320000000     0          
O10?     O      0.147000000000     0.952000000000     0.494600000000     0          
O11?     O      0.369800000000     0.587000000000     0.464500000000     0          
O12?     O      0.457900000000     0.653900000000     0.468500000000     0          
Zr1      Zr     0.408830000000     0.984560000000     0.983550000000     0          
Cu1      Cu     0.288430000000     0.292490000000     0.980540000000     0          
Cl1      Cl     0.289900000000     0.355100000000     0.033100000000     0          
Cl2      Cl     0.365750000000     0.297200000000     0.962200000000     0          
C1       C      0.231860000000     0.196260000000     0.967650000000     0          
C2       C      0.228400000000     0.144940000000     0.956440000000     0          
C3       C      0.270290000000     0.113700000000     0.962840000000     0          
C4       C      0.315660000000     0.133790000000     0.980450000000     0          
C5       C      0.319120000000     0.185110000000     0.991670000000     0          
N1       N      0.278270000000     0.215570000000     0.985430000000     0          
C6       C      0.200100000000     0.235950000000     0.965980000000     0          
C7       C      0.150470000000     0.229280000000     0.949740000000     0          
C8       C      0.117590000000     0.270360000000     0.948000000000     0          
C9       C      0.134350000000     0.318110000000     0.962500000000     0          
C10      C      0.183980000000     0.324790000000     0.978740000000     0          
N2       N      0.216040000000     0.284720000000     0.980440000000     0          
C11      C      0.359800000000     0.100890000000     0.987190000000     0          
O3       O      0.401660000000     0.119420000000     0.003510000000     0          
C12      C      0.099710000000     0.361400000000     0.960680000000     0          
H1       H      0.197020000000     0.131040000000     0.944250000000     0          
H2       H      0.267890000000     0.078210000000     0.955080000000     0          
H3       H      0.350500000000     0.199010000000     0.003850000000     0          
H4       H      0.138880000000     0.196240000000     0.939710000000     0          
H5       H      0.083260000000     0.265740000000     0.936770000000     0          
H6       H      0.195580000000     0.357820000000     0.988770000000     0          
O8?      O      0.471710000000     0.946440000000     0.930320000000     0          
O10?     O      0.353000000000     0.048000000000     0.994600000000     0          
O11?     O      0.130200000000     0.413000000000     0.964500000000     0          
O12?     O      0.042100000000     0.346100000000     0.968500000000     0          
Zr1      Zr     0.516450000000     0.591170000000     0.484560000000     0          
Cu1      Cu     0.519460000000     0.711570000000     0.792490000000     0          
Cl1      Cl     0.466900000000     0.710100000000     0.855100000000     0          
Cl2      Cl     0.537800000000     0.634250000000     0.797200000000     0          
C1       C      0.532350000000     0.768140000000     0.696260000000     0          
C2       C      0.543560000000     0.771600000000     0.644940000000     0          
C3       C      0.537160000000     0.729710000000     0.613700000000     0          
C4       C      0.519550000000     0.684340000000     0.633790000000     0          
C5       C      0.508330000000     0.680880000000     0.685110000000     0          
N1       N      0.514570000000     0.721730000000     0.715570000000     0          
C6       C      0.534020000000     0.799900000000     0.735950000000     0          
C7       C      0.550260000000     0.849530000000     0.729280000000     0          
C8       C      0.552000000000     0.882410000000     0.770360000000     0          
C9       C      0.537500000000     0.865650000000     0.818110000000     0          
C10      C      0.521260000000     0.816020000000     0.824790000000     0          
N2       N      0.519560000000     0.783960000000     0.784720000000     0          
C11      C      0.512810000000     0.640200000000     0.600890000000     0          
O3       O      0.496490000000     0.598340000000     0.619420000000     0          
C12      C      0.539320000000     0.900290000000     0.861400000000     0          
H1       H      0.555750000000     0.802980000000     0.631040000000     0          
H2       H      0.544920000000     0.732110000000     0.578210000000     0          
H3       H      0.496150000000     0.649500000000     0.699010000000     0          
H4       H      0.560290000000     0.861120000000     0.696240000000     0          
H5       H      0.563230000000     0.916740000000     0.765740000000     0          
H6       H      0.511230000000     0.804420000000     0.857820000000     0          
O8?      O      0.569680000000     0.528290000000     0.446440000000     0          
O10?     O      0.505400000000     0.647000000000     0.548000000000     0          
O11?     O      0.535500000000     0.869800000000     0.913000000000     0          
O12?     O      0.531500000000     0.957900000000     0.846100000000     0          
Zr1      Zr     0.016450000000     0.908830000000     0.515440000000     0          
Cu1      Cu     0.019460000000     0.788430000000     0.207510000000     0          
Cl1      Cl     0.966900000000     0.789900000000     0.144900000000     0          
Cl2      Cl     0.037800000000     0.865750000000     0.202800000000     0          
C1       C      0.032350000000     0.731860000000     0.303740000000     0          
C2       C      0.043560000000     0.728400000000     0.355060000000     0          
C3       C      0.037160000000     0.770290000000     0.386300000000     0          
C4       C      0.019550000000     0.815660000000     0.366210000000     0          
C5       C      0.008330000000     0.819120000000     0.314890000000     0          
N1       N      0.014570000000     0.778270000000     0.284430000000     0          
C6       C      0.034020000000     0.700100000000     0.264050000000     0          
C7       C      0.050260000000     0.650470000000     0.270720000000     0          
C8       C      0.052000000000     0.617590000000     0.229640000000     0          
C9       C      0.037500000000     0.634350000000     0.181890000000     0          
C10      C      0.021260000000     0.683980000000     0.175210000000     0          
N2       N      0.019560000000     0.716040000000     0.215280000000     0          
C11      C      0.012810000000     0.859800000000     0.399110000000     0          
O3       O      0.996490000000     0.901660000000     0.380580000000     0          
C12      C      0.039320000000     0.599710000000     0.138600000000     0          
H1       H      0.055750000000     0.697020000000     0.368960000000     0          
H2       H      0.044920000000     0.767890000000     0.421790000000     0          
H3       H      0.996150000000     0.850500000000     0.300990000000     0          
H4       H      0.060290000000     0.638880000000     0.303760000000     0          
H5       H      0.063230000000     0.583260000000     0.234260000000     0          
H6       H      0.011230000000     0.695580000000     0.142180000000     0          
O8?      O      0.069680000000     0.971710000000     0.553560000000     0          
O10?     O      0.005400000000     0.853000000000     0.452000000000     0          
O11?     O      0.035500000000     0.630200000000     0.087000000000     0          
O12?     O      0.031500000000     0.542100000000     0.153900000000     0          
Zr1      Zr     0.483550000000     0.091170000000     0.015440000000     0          
Cu1      Cu     0.480540000000     0.211570000000     0.707510000000     0          
Cl1      Cl     0.533100000000     0.210100000000     0.644900000000     0          
Cl2      Cl     0.462200000000     0.134250000000     0.702800000000     0          
C1       C      0.467650000000     0.268140000000     0.803740000000     0          
C2       C      0.456440000000     0.271600000000     0.855060000000     0          
C3       C      0.462840000000     0.229710000000     0.886300000000     0          
C4       C      0.480450000000     0.184340000000     0.866210000000     0          
C5       C      0.491670000000     0.180880000000     0.814890000000     0          
N1       N      0.485430000000     0.221730000000     0.784430000000     0          
C6       C      0.465980000000     0.299900000000     0.764050000000     0          
C7       C      0.449740000000     0.349530000000     0.770720000000     0          
C8       C      0.448000000000     0.382410000000     0.729640000000     0          
C9       C      0.462500000000     0.365650000000     0.681890000000     0          
C10      C      0.478740000000     0.316020000000     0.675210000000     0          
N2       N      0.480440000000     0.283960000000     0.715280000000     0          
C11      C      0.487190000000     0.140200000000     0.899110000000     0          
O3       O      0.503510000000     0.098340000000     0.880580000000     0          
C12      C      0.460680000000     0.400290000000     0.638600000000     0          
H1       H      0.444250000000     0.302980000000     0.868960000000     0          
H2       H      0.455080000000     0.232110000000     0.921790000000     0          
H3       H      0.503850000000     0.149500000000     0.800990000000     0          
H4       H      0.439710000000     0.361120000000     0.803760000000     0          
H5       H      0.436770000000     0.416740000000     0.734260000000     0          
H6       H      0.488770000000     0.304420000000     0.642180000000     0          
O8?      O      0.430320000000     0.028290000000     0.053560000000     0          
O10?     O      0.494600000000     0.147000000000     0.952000000000     0          
O11?     O      0.464500000000     0.369800000000     0.587000000000     0          
O12?     O      0.468500000000     0.457900000000     0.653900000000     0          
Zr1      Zr     0.983550000000     0.408830000000     0.984560000000     0          
Cu1      Cu     0.980540000000     0.288430000000     0.292490000000     0          
Cl1      Cl     0.033100000000     0.289900000000     0.355100000000     0          
Cl2      Cl     0.962200000000     0.365750000000     0.297200000000     0          
C1       C      0.967650000000     0.231860000000     0.196260000000     0          
C2       C      0.956440000000     0.228400000000     0.144940000000     0          
C3       C      0.962840000000     0.270290000000     0.113700000000     0          
C4       C      0.980450000000     0.315660000000     0.133790000000     0          
C5       C      0.991670000000     0.319120000000     0.185110000000     0          
N1       N      0.985430000000     0.278270000000     0.215570000000     0          
C6       C      0.965980000000     0.200100000000     0.235950000000     0          
C7       C      0.949740000000     0.150470000000     0.229280000000     0          
C8       C      0.948000000000     0.117590000000     0.270360000000     0          
C9       C      0.962500000000     0.134350000000     0.318110000000     0          
C10      C      0.978740000000     0.183980000000     0.324790000000     0          
N2       N      0.980440000000     0.216040000000     0.284720000000     0          
C11      C      0.987190000000     0.359800000000     0.100890000000     0          
O3       O      0.003510000000     0.401660000000     0.119420000000     0          
C12      C      0.960680000000     0.099710000000     0.361400000000     0          
H1       H      0.944250000000     0.197020000000     0.131040000000     0          
H2       H      0.955080000000     0.267890000000     0.078210000000     0          
H3       H      0.003850000000     0.350500000000     0.199010000000     0          
H4       H      0.939710000000     0.138880000000     0.196240000000     0          
H5       H      0.936770000000     0.083260000000     0.265740000000     0          
H6       H      0.988770000000     0.195580000000     0.357820000000     0          
O8?      O      0.930320000000     0.471710000000     0.946440000000     0          
O10?     O      0.994600000000     0.353000000000     0.048000000000     0          
O11?     O      0.964500000000     0.130200000000     0.413000000000     0          
O12?     O      0.968500000000     0.042100000000     0.346100000000     0          


