data_QURPEA

_audit_creation_method RASPA-1.0
_audit_creation_date 2020-11-2
_audit_author_name 'Rocio Bueno-Perez'

_cell_length_a    26.149
_cell_length_b    26.149
_cell_length_c    26.149
_cell_angle_alpha 90
_cell_angle_beta  90
_cell_angle_gamma 90
_cell_volume      17879.9

_symmetry_cell_setting          cubic
_symmetry_space_group_name_Hall 'P 1'
_symmetry_space_group_name_H-M  'P 1'
_symmetry_Int_Tables_number     1

_symmetry_equiv_pos_as_xyz 'x,y,z'

loop_
_atom_site_label
_atom_site_type_symbol
_atom_site_fract_x
_atom_site_fract_y
_atom_site_fract_z
_atom_site_charge
Zr1      Zr     0.016600000000     0.592190000000     0.013920000000     0          
O2       O      0.069900000000     0.535000000000     0.050900000000     0          
O3       O      0.951030000000     0.643970000000     0.032840000000     0          
O4       O      0.881860000000     0.592000000000     0.034210000000     0          
O5       O      0.645620000000     0.948340000000     0.013290000000     0          
O6       O      0.596370000000     0.879610000000     0.994020000000     0          
C7       C      0.800800000000     0.759000000000     0.034600000000     0          
C8       C      0.869200000000     0.680300000000     0.039000000000     0          
C9       C      0.760600000000     0.798400000000     0.029300000000     0          
C10      C      0.682800000000     0.866200000000     0.013700000000     0          
C11      C      0.903800000000     0.635100000000     0.035400000000     0          
C12      C      0.637920000000     0.901220000000     0.005500000000     0          
C13      C      0.818600000000     0.673600000000     0.019100000000     0          
C14      C      0.884900000000     0.728600000000     0.052300000000     0          
C15      C      0.848400000000     0.768100000000     0.053800000000     0          
C16      C      0.766700000000     0.847600000000     0.047600000000     0          
C17      C      0.728200000000     0.884200000000     0.035400000000     0          
C18      C      0.679700000000     0.814500000000     0.997900000000     0          
N19      N      0.786300000000     0.713700000000     0.012700000000     0          
N20      N      0.716900000000     0.780200000000     0.005100000000     0          
Cu21     Cu     0.712900000000     0.708650000000     0.985200000000     0          
Cl22     Cl     0.686100000000     0.644100000000     0.947200000000     0          
H23      H      0.804560000000     0.633790000000     0.008190000000     0          
H24      H      0.926780000000     0.736050000000     0.061850000000     0          
H25      H      0.858010000000     0.807140000000     0.070660000000     0          
H26      H      0.801660000000     0.857760000000     0.071590000000     0          
H27      H      0.733430000000     0.926850000000     0.042750000000     0          
H28      H      0.643880000000     0.799980000000     0.977720000000     0          
O29      O      0.052200000000     0.552200000000     0.947800000000     0          
Zr1      Zr     0.483400000000     0.407810000000     0.513920000000     0          
O2       O      0.430100000000     0.465000000000     0.550900000000     0          
O3       O      0.548970000000     0.356030000000     0.532840000000     0          
O4       O      0.618140000000     0.408000000000     0.534210000000     0          
O5       O      0.854380000000     0.051660000000     0.513290000000     0          
O6       O      0.903630000000     0.120390000000     0.494020000000     0          
C7       C      0.699200000000     0.241000000000     0.534600000000     0          
C8       C      0.630800000000     0.319700000000     0.539000000000     0          
C9       C      0.739400000000     0.201600000000     0.529300000000     0          
C10      C      0.817200000000     0.133800000000     0.513700000000     0          
C11      C      0.596200000000     0.364900000000     0.535400000000     0          
C12      C      0.862080000000     0.098780000000     0.505500000000     0          
C13      C      0.681400000000     0.326400000000     0.519100000000     0          
C14      C      0.615100000000     0.271400000000     0.552300000000     0          
C15      C      0.651600000000     0.231900000000     0.553800000000     0          
C16      C      0.733300000000     0.152400000000     0.547600000000     0          
C17      C      0.771800000000     0.115800000000     0.535400000000     0          
C18      C      0.820300000000     0.185500000000     0.497900000000     0          
N19      N      0.713700000000     0.286300000000     0.512700000000     0          
N20      N      0.783100000000     0.219800000000     0.505100000000     0          
Cu21     Cu     0.787100000000     0.291350000000     0.485200000000     0          
Cl22     Cl     0.813900000000     0.355900000000     0.447200000000     0          
H23      H      0.695440000000     0.366210000000     0.508190000000     0          
H24      H      0.573220000000     0.263950000000     0.561850000000     0          
H25      H      0.641990000000     0.192860000000     0.570660000000     0          
H26      H      0.698340000000     0.142240000000     0.571590000000     0          
H27      H      0.766570000000     0.073150000000     0.542750000000     0          
H28      H      0.856120000000     0.200020000000     0.477720000000     0          
O29      O      0.447800000000     0.447800000000     0.447800000000     0          
Zr1      Zr     0.516600000000     0.907810000000     0.986080000000     0          
O2       O      0.569900000000     0.965000000000     0.949100000000     0          
O3       O      0.451030000000     0.856030000000     0.967160000000     0          
O4       O      0.381860000000     0.908000000000     0.965790000000     0          
O5       O      0.145620000000     0.551660000000     0.986710000000     0          
O6       O      0.096370000000     0.620390000000     0.005980000000     0          
C7       C      0.300800000000     0.741000000000     0.965400000000     0          
C8       C      0.369200000000     0.819700000000     0.961000000000     0          
C9       C      0.260600000000     0.701600000000     0.970700000000     0          
C10      C      0.182800000000     0.633800000000     0.986300000000     0          
C11      C      0.403800000000     0.864900000000     0.964600000000     0          
C12      C      0.137920000000     0.598780000000     0.994500000000     0          
C13      C      0.318600000000     0.826400000000     0.980900000000     0          
C14      C      0.384900000000     0.771400000000     0.947700000000     0          
C15      C      0.348400000000     0.731900000000     0.946200000000     0          
C16      C      0.266700000000     0.652400000000     0.952400000000     0          
C17      C      0.228200000000     0.615800000000     0.964600000000     0          
C18      C      0.179700000000     0.685500000000     0.002100000000     0          
N19      N      0.286300000000     0.786300000000     0.987300000000     0          
N20      N      0.216900000000     0.719800000000     0.994900000000     0          
Cu21     Cu     0.212900000000     0.791350000000     0.014800000000     0          
Cl22     Cl     0.186100000000     0.855900000000     0.052800000000     0          
H23      H      0.304560000000     0.866210000000     0.991810000000     0          
H24      H      0.426780000000     0.763950000000     0.938150000000     0          
H25      H      0.358010000000     0.692860000000     0.929340000000     0          
H26      H      0.301660000000     0.642240000000     0.928410000000     0          
H27      H      0.233430000000     0.573150000000     0.957250000000     0          
H28      H      0.143880000000     0.700020000000     0.022280000000     0          
O29      O      0.552200000000     0.947800000000     0.052200000000     0          
Zr1      Zr     0.983400000000     0.092190000000     0.486080000000     0          
O2       O      0.930100000000     0.035000000000     0.449100000000     0          
O3       O      0.048970000000     0.143970000000     0.467160000000     0          
O4       O      0.118140000000     0.092000000000     0.465790000000     0          
O5       O      0.354380000000     0.448340000000     0.486710000000     0          
O6       O      0.403630000000     0.379610000000     0.505980000000     0          
C7       C      0.199200000000     0.259000000000     0.465400000000     0          
C8       C      0.130800000000     0.180300000000     0.461000000000     0          
C9       C      0.239400000000     0.298400000000     0.470700000000     0          
C10      C      0.317200000000     0.366200000000     0.486300000000     0          
C11      C      0.096200000000     0.135100000000     0.464600000000     0          
C12      C      0.362080000000     0.401220000000     0.494500000000     0          
C13      C      0.181400000000     0.173600000000     0.480900000000     0          
C14      C      0.115100000000     0.228600000000     0.447700000000     0          
C15      C      0.151600000000     0.268100000000     0.446200000000     0          
C16      C      0.233300000000     0.347600000000     0.452400000000     0          
C17      C      0.271800000000     0.384200000000     0.464600000000     0          
C18      C      0.320300000000     0.314500000000     0.502100000000     0          
N19      N      0.213700000000     0.213700000000     0.487300000000     0          
N20      N      0.283100000000     0.280200000000     0.494900000000     0          
Cu21     Cu     0.287100000000     0.208650000000     0.514800000000     0          
Cl22     Cl     0.313900000000     0.144100000000     0.552800000000     0          
H23      H      0.195440000000     0.133790000000     0.491810000000     0          
H24      H      0.073220000000     0.236050000000     0.438150000000     0          
H25      H      0.141990000000     0.307140000000     0.429340000000     0          
H26      H      0.198340000000     0.357760000000     0.428410000000     0          
H27      H      0.266570000000     0.426850000000     0.457250000000     0          
H28      H      0.356120000000     0.299980000000     0.522280000000     0          
O29      O      0.947800000000     0.052200000000     0.552200000000     0          
Zr1      Zr     0.013920000000     0.016600000000     0.592190000000     0          
O2       O      0.050900000000     0.069900000000     0.535000000000     0          
O3       O      0.032840000000     0.951030000000     0.643970000000     0          
O4       O      0.034210000000     0.881860000000     0.592000000000     0          
O5       O      0.013290000000     0.645620000000     0.948340000000     0          
O6       O      0.994020000000     0.596370000000     0.879610000000     0          
C7       C      0.034600000000     0.800800000000     0.759000000000     0          
C8       C      0.039000000000     0.869200000000     0.680300000000     0          
C9       C      0.029300000000     0.760600000000     0.798400000000     0          
C10      C      0.013700000000     0.682800000000     0.866200000000     0          
C11      C      0.035400000000     0.903800000000     0.635100000000     0          
C12      C      0.005500000000     0.637920000000     0.901220000000     0          
C13      C      0.019100000000     0.818600000000     0.673600000000     0          
C14      C      0.052300000000     0.884900000000     0.728600000000     0          
C15      C      0.053800000000     0.848400000000     0.768100000000     0          
C16      C      0.047600000000     0.766700000000     0.847600000000     0          
C17      C      0.035400000000     0.728200000000     0.884200000000     0          
C18      C      0.997900000000     0.679700000000     0.814500000000     0          
N19      N      0.012700000000     0.786300000000     0.713700000000     0          
N20      N      0.005100000000     0.716900000000     0.780200000000     0          
Cu21     Cu     0.985200000000     0.712900000000     0.708650000000     0          
Cl22     Cl     0.947200000000     0.686100000000     0.644100000000     0          
H23      H      0.008190000000     0.804560000000     0.633790000000     0          
H24      H      0.061850000000     0.926780000000     0.736050000000     0          
H25      H      0.070660000000     0.858010000000     0.807140000000     0          
H26      H      0.071590000000     0.801660000000     0.857760000000     0          
H27      H      0.042750000000     0.733430000000     0.926850000000     0          
H28      H      0.977720000000     0.643880000000     0.799980000000     0          
Zr1      Zr     0.486080000000     0.983400000000     0.092190000000     0          
O2       O      0.449100000000     0.930100000000     0.035000000000     0          
O3       O      0.467160000000     0.048970000000     0.143970000000     0          
O4       O      0.465790000000     0.118140000000     0.092000000000     0          
O5       O      0.486710000000     0.354380000000     0.448340000000     0          
O6       O      0.505980000000     0.403630000000     0.379610000000     0          
C7       C      0.465400000000     0.199200000000     0.259000000000     0          
C8       C      0.461000000000     0.130800000000     0.180300000000     0          
C9       C      0.470700000000     0.239400000000     0.298400000000     0          
C10      C      0.486300000000     0.317200000000     0.366200000000     0          
C11      C      0.464600000000     0.096200000000     0.135100000000     0          
C12      C      0.494500000000     0.362080000000     0.401220000000     0          
C13      C      0.480900000000     0.181400000000     0.173600000000     0          
C14      C      0.447700000000     0.115100000000     0.228600000000     0          
C15      C      0.446200000000     0.151600000000     0.268100000000     0          
C16      C      0.452400000000     0.233300000000     0.347600000000     0          
C17      C      0.464600000000     0.271800000000     0.384200000000     0          
C18      C      0.502100000000     0.320300000000     0.314500000000     0          
N19      N      0.487300000000     0.213700000000     0.213700000000     0          
N20      N      0.494900000000     0.283100000000     0.280200000000     0          
Cu21     Cu     0.514800000000     0.287100000000     0.208650000000     0          
Cl22     Cl     0.552800000000     0.313900000000     0.144100000000     0          
H23      H      0.491810000000     0.195440000000     0.133790000000     0          
H24      H      0.438150000000     0.073220000000     0.236050000000     0          
H25      H      0.429340000000     0.141990000000     0.307140000000     0          
H26      H      0.428410000000     0.198340000000     0.357760000000     0          
H27      H      0.457250000000     0.266570000000     0.426850000000     0          
H28      H      0.522280000000     0.356120000000     0.299980000000     0          
Zr1      Zr     0.513920000000     0.483400000000     0.407810000000     0          
O2       O      0.550900000000     0.430100000000     0.465000000000     0          
O3       O      0.532840000000     0.548970000000     0.356030000000     0          
O4       O      0.534210000000     0.618140000000     0.408000000000     0          
O5       O      0.513290000000     0.854380000000     0.051660000000     0          
O6       O      0.494020000000     0.903630000000     0.120390000000     0          
C7       C      0.534600000000     0.699200000000     0.241000000000     0          
C8       C      0.539000000000     0.630800000000     0.319700000000     0          
C9       C      0.529300000000     0.739400000000     0.201600000000     0          
C10      C      0.513700000000     0.817200000000     0.133800000000     0          
C11      C      0.535400000000     0.596200000000     0.364900000000     0          
C12      C      0.505500000000     0.862080000000     0.098780000000     0          
C13      C      0.519100000000     0.681400000000     0.326400000000     0          
C14      C      0.552300000000     0.615100000000     0.271400000000     0          
C15      C      0.553800000000     0.651600000000     0.231900000000     0          
C16      C      0.547600000000     0.733300000000     0.152400000000     0          
C17      C      0.535400000000     0.771800000000     0.115800000000     0          
C18      C      0.497900000000     0.820300000000     0.185500000000     0          
N19      N      0.512700000000     0.713700000000     0.286300000000     0          
N20      N      0.505100000000     0.783100000000     0.219800000000     0          
Cu21     Cu     0.485200000000     0.787100000000     0.291350000000     0          
Cl22     Cl     0.447200000000     0.813900000000     0.355900000000     0          
H23      H      0.508190000000     0.695440000000     0.366210000000     0          
H24      H      0.561850000000     0.573220000000     0.263950000000     0          
H25      H      0.570660000000     0.641990000000     0.192860000000     0          
H26      H      0.571590000000     0.698340000000     0.142240000000     0          
H27      H      0.542750000000     0.766570000000     0.073150000000     0          
H28      H      0.477720000000     0.856120000000     0.200020000000     0          
Zr1      Zr     0.986080000000     0.516600000000     0.907810000000     0          
O2       O      0.949100000000     0.569900000000     0.965000000000     0          
O3       O      0.967160000000     0.451030000000     0.856030000000     0          
O4       O      0.965790000000     0.381860000000     0.908000000000     0          
O5       O      0.986710000000     0.145620000000     0.551660000000     0          
O6       O      0.005980000000     0.096370000000     0.620390000000     0          
C7       C      0.965400000000     0.300800000000     0.741000000000     0          
C8       C      0.961000000000     0.369200000000     0.819700000000     0          
C9       C      0.970700000000     0.260600000000     0.701600000000     0          
C10      C      0.986300000000     0.182800000000     0.633800000000     0          
C11      C      0.964600000000     0.403800000000     0.864900000000     0          
C12      C      0.994500000000     0.137920000000     0.598780000000     0          
C13      C      0.980900000000     0.318600000000     0.826400000000     0          
C14      C      0.947700000000     0.384900000000     0.771400000000     0          
C15      C      0.946200000000     0.348400000000     0.731900000000     0          
C16      C      0.952400000000     0.266700000000     0.652400000000     0          
C17      C      0.964600000000     0.228200000000     0.615800000000     0          
C18      C      0.002100000000     0.179700000000     0.685500000000     0          
N19      N      0.987300000000     0.286300000000     0.786300000000     0          
N20      N      0.994900000000     0.216900000000     0.719800000000     0          
Cu21     Cu     0.014800000000     0.212900000000     0.791350000000     0          
Cl22     Cl     0.052800000000     0.186100000000     0.855900000000     0          
H23      H      0.991810000000     0.304560000000     0.866210000000     0          
H24      H      0.938150000000     0.426780000000     0.763950000000     0          
H25      H      0.929340000000     0.358010000000     0.692860000000     0          
H26      H      0.928410000000     0.301660000000     0.642240000000     0          
H27      H      0.957250000000     0.233430000000     0.573150000000     0          
H28      H      0.022280000000     0.143880000000     0.700020000000     0          
Zr1      Zr     0.592190000000     0.013920000000     0.016600000000     0          
O2       O      0.535000000000     0.050900000000     0.069900000000     0          
O3       O      0.643970000000     0.032840000000     0.951030000000     0          
O4       O      0.592000000000     0.034210000000     0.881860000000     0          
O5       O      0.948340000000     0.013290000000     0.645620000000     0          
O6       O      0.879610000000     0.994020000000     0.596370000000     0          
C7       C      0.759000000000     0.034600000000     0.800800000000     0          
C8       C      0.680300000000     0.039000000000     0.869200000000     0          
C9       C      0.798400000000     0.029300000000     0.760600000000     0          
C10      C      0.866200000000     0.013700000000     0.682800000000     0          
C11      C      0.635100000000     0.035400000000     0.903800000000     0          
C12      C      0.901220000000     0.005500000000     0.637920000000     0          
C13      C      0.673600000000     0.019100000000     0.818600000000     0          
C14      C      0.728600000000     0.052300000000     0.884900000000     0          
C15      C      0.768100000000     0.053800000000     0.848400000000     0          
C16      C      0.847600000000     0.047600000000     0.766700000000     0          
C17      C      0.884200000000     0.035400000000     0.728200000000     0          
C18      C      0.814500000000     0.997900000000     0.679700000000     0          
N19      N      0.713700000000     0.012700000000     0.786300000000     0          
N20      N      0.780200000000     0.005100000000     0.716900000000     0          
Cu21     Cu     0.708650000000     0.985200000000     0.712900000000     0          
Cl22     Cl     0.644100000000     0.947200000000     0.686100000000     0          
H23      H      0.633790000000     0.008190000000     0.804560000000     0          
H24      H      0.736050000000     0.061850000000     0.926780000000     0          
H25      H      0.807140000000     0.070660000000     0.858010000000     0          
H26      H      0.857760000000     0.071590000000     0.801660000000     0          
H27      H      0.926850000000     0.042750000000     0.733430000000     0          
H28      H      0.799980000000     0.977720000000     0.643880000000     0          
Zr1      Zr     0.092190000000     0.486080000000     0.983400000000     0          
O2       O      0.035000000000     0.449100000000     0.930100000000     0          
O3       O      0.143970000000     0.467160000000     0.048970000000     0          
O4       O      0.092000000000     0.465790000000     0.118140000000     0          
O5       O      0.448340000000     0.486710000000     0.354380000000     0          
O6       O      0.379610000000     0.505980000000     0.403630000000     0          
C7       C      0.259000000000     0.465400000000     0.199200000000     0          
C8       C      0.180300000000     0.461000000000     0.130800000000     0          
C9       C      0.298400000000     0.470700000000     0.239400000000     0          
C10      C      0.366200000000     0.486300000000     0.317200000000     0          
C11      C      0.135100000000     0.464600000000     0.096200000000     0          
C12      C      0.401220000000     0.494500000000     0.362080000000     0          
C13      C      0.173600000000     0.480900000000     0.181400000000     0          
C14      C      0.228600000000     0.447700000000     0.115100000000     0          
C15      C      0.268100000000     0.446200000000     0.151600000000     0          
C16      C      0.347600000000     0.452400000000     0.233300000000     0          
C17      C      0.384200000000     0.464600000000     0.271800000000     0          
C18      C      0.314500000000     0.502100000000     0.320300000000     0          
N19      N      0.213700000000     0.487300000000     0.213700000000     0          
N20      N      0.280200000000     0.494900000000     0.283100000000     0          
Cu21     Cu     0.208650000000     0.514800000000     0.287100000000     0          
Cl22     Cl     0.144100000000     0.552800000000     0.313900000000     0          
H23      H      0.133790000000     0.491810000000     0.195440000000     0          
H24      H      0.236050000000     0.438150000000     0.073220000000     0          
H25      H      0.307140000000     0.429340000000     0.141990000000     0          
H26      H      0.357760000000     0.428410000000     0.198340000000     0          
H27      H      0.426850000000     0.457250000000     0.266570000000     0          
H28      H      0.299980000000     0.522280000000     0.356120000000     0          
Zr1      Zr     0.407810000000     0.513920000000     0.483400000000     0          
O2       O      0.465000000000     0.550900000000     0.430100000000     0          
O3       O      0.356030000000     0.532840000000     0.548970000000     0          
O4       O      0.408000000000     0.534210000000     0.618140000000     0          
O5       O      0.051660000000     0.513290000000     0.854380000000     0          
O6       O      0.120390000000     0.494020000000     0.903630000000     0          
C7       C      0.241000000000     0.534600000000     0.699200000000     0          
C8       C      0.319700000000     0.539000000000     0.630800000000     0          
C9       C      0.201600000000     0.529300000000     0.739400000000     0          
C10      C      0.133800000000     0.513700000000     0.817200000000     0          
C11      C      0.364900000000     0.535400000000     0.596200000000     0          
C12      C      0.098780000000     0.505500000000     0.862080000000     0          
C13      C      0.326400000000     0.519100000000     0.681400000000     0          
C14      C      0.271400000000     0.552300000000     0.615100000000     0          
C15      C      0.231900000000     0.553800000000     0.651600000000     0          
C16      C      0.152400000000     0.547600000000     0.733300000000     0          
C17      C      0.115800000000     0.535400000000     0.771800000000     0          
C18      C      0.185500000000     0.497900000000     0.820300000000     0          
N19      N      0.286300000000     0.512700000000     0.713700000000     0          
N20      N      0.219800000000     0.505100000000     0.783100000000     0          
Cu21     Cu     0.291350000000     0.485200000000     0.787100000000     0          
Cl22     Cl     0.355900000000     0.447200000000     0.813900000000     0          
H23      H      0.366210000000     0.508190000000     0.695440000000     0          
H24      H      0.263950000000     0.561850000000     0.573220000000     0          
H25      H      0.192860000000     0.570660000000     0.641990000000     0          
H26      H      0.142240000000     0.571590000000     0.698340000000     0          
H27      H      0.073150000000     0.542750000000     0.766570000000     0          
H28      H      0.200020000000     0.477720000000     0.856120000000     0          
Zr1      Zr     0.907810000000     0.986080000000     0.516600000000     0          
O2       O      0.965000000000     0.949100000000     0.569900000000     0          
O3       O      0.856030000000     0.967160000000     0.451030000000     0          
O4       O      0.908000000000     0.965790000000     0.381860000000     0          
O5       O      0.551660000000     0.986710000000     0.145620000000     0          
O6       O      0.620390000000     0.005980000000     0.096370000000     0          
C7       C      0.741000000000     0.965400000000     0.300800000000     0          
C8       C      0.819700000000     0.961000000000     0.369200000000     0          
C9       C      0.701600000000     0.970700000000     0.260600000000     0          
C10      C      0.633800000000     0.986300000000     0.182800000000     0          
C11      C      0.864900000000     0.964600000000     0.403800000000     0          
C12      C      0.598780000000     0.994500000000     0.137920000000     0          
C13      C      0.826400000000     0.980900000000     0.318600000000     0          
C14      C      0.771400000000     0.947700000000     0.384900000000     0          
C15      C      0.731900000000     0.946200000000     0.348400000000     0          
C16      C      0.652400000000     0.952400000000     0.266700000000     0          
C17      C      0.615800000000     0.964600000000     0.228200000000     0          
C18      C      0.685500000000     0.002100000000     0.179700000000     0          
N19      N      0.786300000000     0.987300000000     0.286300000000     0          
N20      N      0.719800000000     0.994900000000     0.216900000000     0          
Cu21     Cu     0.791350000000     0.014800000000     0.212900000000     0          
Cl22     Cl     0.855900000000     0.052800000000     0.186100000000     0          
H23      H      0.866210000000     0.991810000000     0.304560000000     0          
H24      H      0.763950000000     0.938150000000     0.426780000000     0          
H25      H      0.692860000000     0.929340000000     0.358010000000     0          
H26      H      0.642240000000     0.928410000000     0.301660000000     0          
H27      H      0.573150000000     0.957250000000     0.233430000000     0          
H28      H      0.700020000000     0.022280000000     0.143880000000     0          
Zr1      Zr     0.983400000000     0.407810000000     0.986080000000     0          
O2       O      0.930100000000     0.465000000000     0.949100000000     0          
O3       O      0.048970000000     0.356030000000     0.967160000000     0          
O4       O      0.118140000000     0.408000000000     0.965790000000     0          
O5       O      0.354380000000     0.051660000000     0.986710000000     0          
O6       O      0.403630000000     0.120390000000     0.005980000000     0          
C7       C      0.199200000000     0.241000000000     0.965400000000     0          
C8       C      0.130800000000     0.319700000000     0.961000000000     0          
C9       C      0.239400000000     0.201600000000     0.970700000000     0          
C10      C      0.317200000000     0.133800000000     0.986300000000     0          
C11      C      0.096200000000     0.364900000000     0.964600000000     0          
C12      C      0.362080000000     0.098780000000     0.994500000000     0          
C13      C      0.181400000000     0.326400000000     0.980900000000     0          
C14      C      0.115100000000     0.271400000000     0.947700000000     0          
C15      C      0.151600000000     0.231900000000     0.946200000000     0          
C16      C      0.233300000000     0.152400000000     0.952400000000     0          
C17      C      0.271800000000     0.115800000000     0.964600000000     0          
C18      C      0.320300000000     0.185500000000     0.002100000000     0          
N19      N      0.213700000000     0.286300000000     0.987300000000     0          
N20      N      0.283100000000     0.219800000000     0.994900000000     0          
Cu21     Cu     0.287100000000     0.291350000000     0.014800000000     0          
Cl22     Cl     0.313900000000     0.355900000000     0.052800000000     0          
H23      H      0.195440000000     0.366210000000     0.991810000000     0          
H24      H      0.073220000000     0.263950000000     0.938150000000     0          
H25      H      0.141990000000     0.192860000000     0.929340000000     0          
H26      H      0.198340000000     0.142240000000     0.928410000000     0          
H27      H      0.266570000000     0.073150000000     0.957250000000     0          
H28      H      0.356120000000     0.200020000000     0.022280000000     0          
O29      O      0.947800000000     0.447800000000     0.052200000000     0          
Zr1      Zr     0.516600000000     0.592190000000     0.486080000000     0          
O2       O      0.569900000000     0.535000000000     0.449100000000     0          
O3       O      0.451030000000     0.643970000000     0.467160000000     0          
O4       O      0.381860000000     0.592000000000     0.465790000000     0          
O5       O      0.145620000000     0.948340000000     0.486710000000     0          
O6       O      0.096370000000     0.879610000000     0.505980000000     0          
C7       C      0.300800000000     0.759000000000     0.465400000000     0          
C8       C      0.369200000000     0.680300000000     0.461000000000     0          
C9       C      0.260600000000     0.798400000000     0.470700000000     0          
C10      C      0.182800000000     0.866200000000     0.486300000000     0          
C11      C      0.403800000000     0.635100000000     0.464600000000     0          
C12      C      0.137920000000     0.901220000000     0.494500000000     0          
C13      C      0.318600000000     0.673600000000     0.480900000000     0          
C14      C      0.384900000000     0.728600000000     0.447700000000     0          
C15      C      0.348400000000     0.768100000000     0.446200000000     0          
C16      C      0.266700000000     0.847600000000     0.452400000000     0          
C17      C      0.228200000000     0.884200000000     0.464600000000     0          
C18      C      0.179700000000     0.814500000000     0.502100000000     0          
N19      N      0.286300000000     0.713700000000     0.487300000000     0          
N20      N      0.216900000000     0.780200000000     0.494900000000     0          
Cu21     Cu     0.212900000000     0.708650000000     0.514800000000     0          
Cl22     Cl     0.186100000000     0.644100000000     0.552800000000     0          
H23      H      0.304560000000     0.633790000000     0.491810000000     0          
H24      H      0.426780000000     0.736050000000     0.438150000000     0          
H25      H      0.358010000000     0.807140000000     0.429340000000     0          
H26      H      0.301660000000     0.857760000000     0.428410000000     0          
H27      H      0.233430000000     0.926850000000     0.457250000000     0          
H28      H      0.143880000000     0.799980000000     0.522280000000     0          
O29      O      0.552200000000     0.552200000000     0.552200000000     0          
Zr1      Zr     0.483400000000     0.092190000000     0.013920000000     0          
O2       O      0.430100000000     0.035000000000     0.050900000000     0          
O3       O      0.548970000000     0.143970000000     0.032840000000     0          
O4       O      0.618140000000     0.092000000000     0.034210000000     0          
O5       O      0.854380000000     0.448340000000     0.013290000000     0          
O6       O      0.903630000000     0.379610000000     0.994020000000     0          
C7       C      0.699200000000     0.259000000000     0.034600000000     0          
C8       C      0.630800000000     0.180300000000     0.039000000000     0          
C9       C      0.739400000000     0.298400000000     0.029300000000     0          
C10      C      0.817200000000     0.366200000000     0.013700000000     0          
C11      C      0.596200000000     0.135100000000     0.035400000000     0          
C12      C      0.862080000000     0.401220000000     0.005500000000     0          
C13      C      0.681400000000     0.173600000000     0.019100000000     0          
C14      C      0.615100000000     0.228600000000     0.052300000000     0          
C15      C      0.651600000000     0.268100000000     0.053800000000     0          
C16      C      0.733300000000     0.347600000000     0.047600000000     0          
C17      C      0.771800000000     0.384200000000     0.035400000000     0          
C18      C      0.820300000000     0.314500000000     0.997900000000     0          
N19      N      0.713700000000     0.213700000000     0.012700000000     0          
N20      N      0.783100000000     0.280200000000     0.005100000000     0          
Cu21     Cu     0.787100000000     0.208650000000     0.985200000000     0          
Cl22     Cl     0.813900000000     0.144100000000     0.947200000000     0          
H23      H      0.695440000000     0.133790000000     0.008190000000     0          
H24      H      0.573220000000     0.236050000000     0.061850000000     0          
H25      H      0.641990000000     0.307140000000     0.070660000000     0          
H26      H      0.698340000000     0.357760000000     0.071590000000     0          
H27      H      0.766570000000     0.426850000000     0.042750000000     0          
H28      H      0.856120000000     0.299980000000     0.977720000000     0          
O29      O      0.447800000000     0.052200000000     0.947800000000     0          
Zr1      Zr     0.016600000000     0.907810000000     0.513920000000     0          
O2       O      0.069900000000     0.965000000000     0.550900000000     0          
O3       O      0.951030000000     0.856030000000     0.532840000000     0          
O4       O      0.881860000000     0.908000000000     0.534210000000     0          
O5       O      0.645620000000     0.551660000000     0.513290000000     0          
O6       O      0.596370000000     0.620390000000     0.494020000000     0          
C7       C      0.800800000000     0.741000000000     0.534600000000     0          
C8       C      0.869200000000     0.819700000000     0.539000000000     0          
C9       C      0.760600000000     0.701600000000     0.529300000000     0          
C10      C      0.682800000000     0.633800000000     0.513700000000     0          
C11      C      0.903800000000     0.864900000000     0.535400000000     0          
C12      C      0.637920000000     0.598780000000     0.505500000000     0          
C13      C      0.818600000000     0.826400000000     0.519100000000     0          
C14      C      0.884900000000     0.771400000000     0.552300000000     0          
C15      C      0.848400000000     0.731900000000     0.553800000000     0          
C16      C      0.766700000000     0.652400000000     0.547600000000     0          
C17      C      0.728200000000     0.615800000000     0.535400000000     0          
C18      C      0.679700000000     0.685500000000     0.497900000000     0          
N19      N      0.786300000000     0.786300000000     0.512700000000     0          
N20      N      0.716900000000     0.719800000000     0.505100000000     0          
Cu21     Cu     0.712900000000     0.791350000000     0.485200000000     0          
Cl22     Cl     0.686100000000     0.855900000000     0.447200000000     0          
H23      H      0.804560000000     0.866210000000     0.508190000000     0          
H24      H      0.926780000000     0.763950000000     0.561850000000     0          
H25      H      0.858010000000     0.692860000000     0.570660000000     0          
H26      H      0.801660000000     0.642240000000     0.571590000000     0          
H27      H      0.733430000000     0.573150000000     0.542750000000     0          
H28      H      0.643880000000     0.700020000000     0.477720000000     0          
O29      O      0.052200000000     0.947800000000     0.447800000000     0          
Zr1      Zr     0.986080000000     0.983400000000     0.407810000000     0          
O2       O      0.949100000000     0.930100000000     0.465000000000     0          
O3       O      0.967160000000     0.048970000000     0.356030000000     0          
O4       O      0.965790000000     0.118140000000     0.408000000000     0          
O5       O      0.986710000000     0.354380000000     0.051660000000     0          
O6       O      0.005980000000     0.403630000000     0.120390000000     0          
C7       C      0.965400000000     0.199200000000     0.241000000000     0          
C8       C      0.961000000000     0.130800000000     0.319700000000     0          
C9       C      0.970700000000     0.239400000000     0.201600000000     0          
C10      C      0.986300000000     0.317200000000     0.133800000000     0          
C11      C      0.964600000000     0.096200000000     0.364900000000     0          
C12      C      0.994500000000     0.362080000000     0.098780000000     0          
C13      C      0.980900000000     0.181400000000     0.326400000000     0          
C14      C      0.947700000000     0.115100000000     0.271400000000     0          
C15      C      0.946200000000     0.151600000000     0.231900000000     0          
C16      C      0.952400000000     0.233300000000     0.152400000000     0          
C17      C      0.964600000000     0.271800000000     0.115800000000     0          
C18      C      0.002100000000     0.320300000000     0.185500000000     0          
N19      N      0.987300000000     0.213700000000     0.286300000000     0          
N20      N      0.994900000000     0.283100000000     0.219800000000     0          
Cu21     Cu     0.014800000000     0.287100000000     0.291350000000     0          
Cl22     Cl     0.052800000000     0.313900000000     0.355900000000     0          
H23      H      0.991810000000     0.195440000000     0.366210000000     0          
H24      H      0.938150000000     0.073220000000     0.263950000000     0          
H25      H      0.929340000000     0.141990000000     0.192860000000     0          
H26      H      0.928410000000     0.198340000000     0.142240000000     0          
H27      H      0.957250000000     0.266570000000     0.073150000000     0          
H28      H      0.022280000000     0.356120000000     0.200020000000     0          
Zr1      Zr     0.513920000000     0.016600000000     0.907810000000     0          
O2       O      0.550900000000     0.069900000000     0.965000000000     0          
O3       O      0.532840000000     0.951030000000     0.856030000000     0          
O4       O      0.534210000000     0.881860000000     0.908000000000     0          
O5       O      0.513290000000     0.645620000000     0.551660000000     0          
O6       O      0.494020000000     0.596370000000     0.620390000000     0          
C7       C      0.534600000000     0.800800000000     0.741000000000     0          
C8       C      0.539000000000     0.869200000000     0.819700000000     0          
C9       C      0.529300000000     0.760600000000     0.701600000000     0          
C10      C      0.513700000000     0.682800000000     0.633800000000     0          
C11      C      0.535400000000     0.903800000000     0.864900000000     0          
C12      C      0.505500000000     0.637920000000     0.598780000000     0          
C13      C      0.519100000000     0.818600000000     0.826400000000     0          
C14      C      0.552300000000     0.884900000000     0.771400000000     0          
C15      C      0.553800000000     0.848400000000     0.731900000000     0          
C16      C      0.547600000000     0.766700000000     0.652400000000     0          
C17      C      0.535400000000     0.728200000000     0.615800000000     0          
C18      C      0.497900000000     0.679700000000     0.685500000000     0          
N19      N      0.512700000000     0.786300000000     0.786300000000     0          
N20      N      0.505100000000     0.716900000000     0.719800000000     0          
Cu21     Cu     0.485200000000     0.712900000000     0.791350000000     0          
Cl22     Cl     0.447200000000     0.686100000000     0.855900000000     0          
H23      H      0.508190000000     0.804560000000     0.866210000000     0          
H24      H      0.561850000000     0.926780000000     0.763950000000     0          
H25      H      0.570660000000     0.858010000000     0.692860000000     0          
H26      H      0.571590000000     0.801660000000     0.642240000000     0          
H27      H      0.542750000000     0.733430000000     0.573150000000     0          
H28      H      0.477720000000     0.643880000000     0.700020000000     0          
Zr1      Zr     0.486080000000     0.516600000000     0.592190000000     0          
O2       O      0.449100000000     0.569900000000     0.535000000000     0          
O3       O      0.467160000000     0.451030000000     0.643970000000     0          
O4       O      0.465790000000     0.381860000000     0.592000000000     0          
O5       O      0.486710000000     0.145620000000     0.948340000000     0          
O6       O      0.505980000000     0.096370000000     0.879610000000     0          
C7       C      0.465400000000     0.300800000000     0.759000000000     0          
C8       C      0.461000000000     0.369200000000     0.680300000000     0          
C9       C      0.470700000000     0.260600000000     0.798400000000     0          
C10      C      0.486300000000     0.182800000000     0.866200000000     0          
C11      C      0.464600000000     0.403800000000     0.635100000000     0          
C12      C      0.494500000000     0.137920000000     0.901220000000     0          
C13      C      0.480900000000     0.318600000000     0.673600000000     0          
C14      C      0.447700000000     0.384900000000     0.728600000000     0          
C15      C      0.446200000000     0.348400000000     0.768100000000     0          
C16      C      0.452400000000     0.266700000000     0.847600000000     0          
C17      C      0.464600000000     0.228200000000     0.884200000000     0          
C18      C      0.502100000000     0.179700000000     0.814500000000     0          
N19      N      0.487300000000     0.286300000000     0.713700000000     0          
N20      N      0.494900000000     0.216900000000     0.780200000000     0          
Cu21     Cu     0.514800000000     0.212900000000     0.708650000000     0          
Cl22     Cl     0.552800000000     0.186100000000     0.644100000000     0          
H23      H      0.491810000000     0.304560000000     0.633790000000     0          
H24      H      0.438150000000     0.426780000000     0.736050000000     0          
H25      H      0.429340000000     0.358010000000     0.807140000000     0          
H26      H      0.428410000000     0.301660000000     0.857760000000     0          
H27      H      0.457250000000     0.233430000000     0.926850000000     0          
H28      H      0.522280000000     0.143880000000     0.799980000000     0          
Zr1      Zr     0.013920000000     0.483400000000     0.092190000000     0          
O2       O      0.050900000000     0.430100000000     0.035000000000     0          
O3       O      0.032840000000     0.548970000000     0.143970000000     0          
O4       O      0.034210000000     0.618140000000     0.092000000000     0          
O5       O      0.013290000000     0.854380000000     0.448340000000     0          
O6       O      0.994020000000     0.903630000000     0.379610000000     0          
C7       C      0.034600000000     0.699200000000     0.259000000000     0          
C8       C      0.039000000000     0.630800000000     0.180300000000     0          
C9       C      0.029300000000     0.739400000000     0.298400000000     0          
C10      C      0.013700000000     0.817200000000     0.366200000000     0          
C11      C      0.035400000000     0.596200000000     0.135100000000     0          
C12      C      0.005500000000     0.862080000000     0.401220000000     0          
C13      C      0.019100000000     0.681400000000     0.173600000000     0          
C14      C      0.052300000000     0.615100000000     0.228600000000     0          
C15      C      0.053800000000     0.651600000000     0.268100000000     0          
C16      C      0.047600000000     0.733300000000     0.347600000000     0          
C17      C      0.035400000000     0.771800000000     0.384200000000     0          
C18      C      0.997900000000     0.820300000000     0.314500000000     0          
N19      N      0.012700000000     0.713700000000     0.213700000000     0          
N20      N      0.005100000000     0.783100000000     0.280200000000     0          
Cu21     Cu     0.985200000000     0.787100000000     0.208650000000     0          
Cl22     Cl     0.947200000000     0.813900000000     0.144100000000     0          
H23      H      0.008190000000     0.695440000000     0.133790000000     0          
H24      H      0.061850000000     0.573220000000     0.236050000000     0          
H25      H      0.070660000000     0.641990000000     0.307140000000     0          
H26      H      0.071590000000     0.698340000000     0.357760000000     0          
H27      H      0.042750000000     0.766570000000     0.426850000000     0          
H28      H      0.977720000000     0.856120000000     0.299980000000     0          
Zr1      Zr     0.407810000000     0.986080000000     0.983400000000     0          
O2       O      0.465000000000     0.949100000000     0.930100000000     0          
O3       O      0.356030000000     0.967160000000     0.048970000000     0          
O4       O      0.408000000000     0.965790000000     0.118140000000     0          
O5       O      0.051660000000     0.986710000000     0.354380000000     0          
O6       O      0.120390000000     0.005980000000     0.403630000000     0          
C7       C      0.241000000000     0.965400000000     0.199200000000     0          
C8       C      0.319700000000     0.961000000000     0.130800000000     0          
C9       C      0.201600000000     0.970700000000     0.239400000000     0          
C10      C      0.133800000000     0.986300000000     0.317200000000     0          
C11      C      0.364900000000     0.964600000000     0.096200000000     0          
C12      C      0.098780000000     0.994500000000     0.362080000000     0          
C13      C      0.326400000000     0.980900000000     0.181400000000     0          
C14      C      0.271400000000     0.947700000000     0.115100000000     0          
C15      C      0.231900000000     0.946200000000     0.151600000000     0          
C16      C      0.152400000000     0.952400000000     0.233300000000     0          
C17      C      0.115800000000     0.964600000000     0.271800000000     0          
C18      C      0.185500000000     0.002100000000     0.320300000000     0          
N19      N      0.286300000000     0.987300000000     0.213700000000     0          
N20      N      0.219800000000     0.994900000000     0.283100000000     0          
Cu21     Cu     0.291350000000     0.014800000000     0.287100000000     0          
Cl22     Cl     0.355900000000     0.052800000000     0.313900000000     0          
H23      H      0.366210000000     0.991810000000     0.195440000000     0          
H24      H      0.263950000000     0.938150000000     0.073220000000     0          
H25      H      0.192860000000     0.929340000000     0.141990000000     0          
H26      H      0.142240000000     0.928410000000     0.198340000000     0          
H27      H      0.073150000000     0.957250000000     0.266570000000     0          
H28      H      0.200020000000     0.022280000000     0.356120000000     0          
Zr1      Zr     0.907810000000     0.513920000000     0.016600000000     0          
O2       O      0.965000000000     0.550900000000     0.069900000000     0          
O3       O      0.856030000000     0.532840000000     0.951030000000     0          
O4       O      0.908000000000     0.534210000000     0.881860000000     0          
O5       O      0.551660000000     0.513290000000     0.645620000000     0          
O6       O      0.620390000000     0.494020000000     0.596370000000     0          
C7       C      0.741000000000     0.534600000000     0.800800000000     0          
C8       C      0.819700000000     0.539000000000     0.869200000000     0          
C9       C      0.701600000000     0.529300000000     0.760600000000     0          
C10      C      0.633800000000     0.513700000000     0.682800000000     0          
C11      C      0.864900000000     0.535400000000     0.903800000000     0          
C12      C      0.598780000000     0.505500000000     0.637920000000     0          
C13      C      0.826400000000     0.519100000000     0.818600000000     0          
C14      C      0.771400000000     0.552300000000     0.884900000000     0          
C15      C      0.731900000000     0.553800000000     0.848400000000     0          
C16      C      0.652400000000     0.547600000000     0.766700000000     0          
C17      C      0.615800000000     0.535400000000     0.728200000000     0          
C18      C      0.685500000000     0.497900000000     0.679700000000     0          
N19      N      0.786300000000     0.512700000000     0.786300000000     0          
N20      N      0.719800000000     0.505100000000     0.716900000000     0          
Cu21     Cu     0.791350000000     0.485200000000     0.712900000000     0          
Cl22     Cl     0.855900000000     0.447200000000     0.686100000000     0          
H23      H      0.866210000000     0.508190000000     0.804560000000     0          
H24      H      0.763950000000     0.561850000000     0.926780000000     0          
H25      H      0.692860000000     0.570660000000     0.858010000000     0          
H26      H      0.642240000000     0.571590000000     0.801660000000     0          
H27      H      0.573150000000     0.542750000000     0.733430000000     0          
H28      H      0.700020000000     0.477720000000     0.643880000000     0          
Zr1      Zr     0.592190000000     0.486080000000     0.516600000000     0          
O2       O      0.535000000000     0.449100000000     0.569900000000     0          
O3       O      0.643970000000     0.467160000000     0.451030000000     0          
O4       O      0.592000000000     0.465790000000     0.381860000000     0          
O5       O      0.948340000000     0.486710000000     0.145620000000     0          
O6       O      0.879610000000     0.505980000000     0.096370000000     0          
C7       C      0.759000000000     0.465400000000     0.300800000000     0          
C8       C      0.680300000000     0.461000000000     0.369200000000     0          
C9       C      0.798400000000     0.470700000000     0.260600000000     0          
C10      C      0.866200000000     0.486300000000     0.182800000000     0          
C11      C      0.635100000000     0.464600000000     0.403800000000     0          
C12      C      0.901220000000     0.494500000000     0.137920000000     0          
C13      C      0.673600000000     0.480900000000     0.318600000000     0          
C14      C      0.728600000000     0.447700000000     0.384900000000     0          
C15      C      0.768100000000     0.446200000000     0.348400000000     0          
C16      C      0.847600000000     0.452400000000     0.266700000000     0          
C17      C      0.884200000000     0.464600000000     0.228200000000     0          
C18      C      0.814500000000     0.502100000000     0.179700000000     0          
N19      N      0.713700000000     0.487300000000     0.286300000000     0          
N20      N      0.780200000000     0.494900000000     0.216900000000     0          
Cu21     Cu     0.708650000000     0.514800000000     0.212900000000     0          
Cl22     Cl     0.644100000000     0.552800000000     0.186100000000     0          
H23      H      0.633790000000     0.491810000000     0.304560000000     0          
H24      H      0.736050000000     0.438150000000     0.426780000000     0          
H25      H      0.807140000000     0.429340000000     0.358010000000     0          
H26      H      0.857760000000     0.428410000000     0.301660000000     0          
H27      H      0.926850000000     0.457250000000     0.233430000000     0          
H28      H      0.799980000000     0.522280000000     0.143880000000     0          
Zr1      Zr     0.092190000000     0.013920000000     0.483400000000     0          
O2       O      0.035000000000     0.050900000000     0.430100000000     0          
O3       O      0.143970000000     0.032840000000     0.548970000000     0          
O4       O      0.092000000000     0.034210000000     0.618140000000     0          
O5       O      0.448340000000     0.013290000000     0.854380000000     0          
O6       O      0.379610000000     0.994020000000     0.903630000000     0          
C7       C      0.259000000000     0.034600000000     0.699200000000     0          
C8       C      0.180300000000     0.039000000000     0.630800000000     0          
C9       C      0.298400000000     0.029300000000     0.739400000000     0          
C10      C      0.366200000000     0.013700000000     0.817200000000     0          
C11      C      0.135100000000     0.035400000000     0.596200000000     0          
C12      C      0.401220000000     0.005500000000     0.862080000000     0          
C13      C      0.173600000000     0.019100000000     0.681400000000     0          
C14      C      0.228600000000     0.052300000000     0.615100000000     0          
C15      C      0.268100000000     0.053800000000     0.651600000000     0          
C16      C      0.347600000000     0.047600000000     0.733300000000     0          
C17      C      0.384200000000     0.035400000000     0.771800000000     0          
C18      C      0.314500000000     0.997900000000     0.820300000000     0          
N19      N      0.213700000000     0.012700000000     0.713700000000     0          
N20      N      0.280200000000     0.005100000000     0.783100000000     0          
Cu21     Cu     0.208650000000     0.985200000000     0.787100000000     0          
Cl22     Cl     0.144100000000     0.947200000000     0.813900000000     0          
H23      H      0.133790000000     0.008190000000     0.695440000000     0          
H24      H      0.236050000000     0.061850000000     0.573220000000     0          
H25      H      0.307140000000     0.070660000000     0.641990000000     0          
H26      H      0.357760000000     0.071590000000     0.698340000000     0          
H27      H      0.426850000000     0.042750000000     0.766570000000     0          
H28      H      0.299980000000     0.977720000000     0.856120000000     0          


