data_QURPIE

_audit_creation_method RASPA-1.0
_audit_creation_date 2020-11-2
_audit_author_name 'Rocio Bueno-Perez'

_cell_length_a    26.0483
_cell_length_b    26.0483
_cell_length_c    26.0483
_cell_angle_alpha 90
_cell_angle_beta  90
_cell_angle_gamma 90
_cell_volume      17674.1

_symmetry_cell_setting          cubic
_symmetry_space_group_name_Hall 'P 1'
_symmetry_space_group_name_H-M  'P 1'
_symmetry_Int_Tables_number     1

_symmetry_equiv_pos_as_xyz 'x,y,z'

loop_
_atom_site_label
_atom_site_type_symbol
_atom_site_fract_x
_atom_site_fract_y
_atom_site_fract_z
_atom_site_charge
Zr1      Zr     0.514320000000     0.483220000000     0.407760000000     0          
Cu1      Cu     0.206290000000     0.485870000000     0.291690000000     0          
Cl1      Cl     0.131110000000     0.524950000000     0.289310000000     0          
Cl2      Cl     0.203690000000     0.460740000000     0.372700000000     0          
O1       O      0.380720000000     0.506200000000     0.402830000000     0          
O3       O      0.092130000000     0.466000000000     0.117840000000     0          
O4       O      0.142890000000     0.466990000000     0.049570000000     0          
N1       N      0.282190000000     0.480540000000     0.285570000000     0          
N2       N      0.212650000000     0.476100000000     0.215640000000     0          
C1       C      0.300570000000     0.471420000000     0.238360000000     0          
C2       C      0.352340000000     0.466400000000     0.228330000000     0          
H1       H      0.364200000000     0.457800000000     0.194900000000     0          
C3       C      0.386720000000     0.474100000000     0.268650000000     0          
H2       H      0.422700000000     0.471600000000     0.263100000000     0          
C4       C      0.367650000000     0.485550000000     0.316930000000     0          
C5       C      0.314750000000     0.487920000000     0.323840000000     0          
H3       H      0.301600000000     0.495100000000     0.357100000000     0          
C6       C      0.260770000000     0.467000000000     0.198000000000     0          
C7       C      0.270340000000     0.456700000000     0.147220000000     0          
H4       H      0.304400000000     0.450700000000     0.135700000000     0          
C8       C      0.229550000000     0.455200000000     0.112840000000     0          
H5       H      0.235300000000     0.448400000000     0.077500000000     0          
C9       C      0.180340000000     0.463670000000     0.131170000000     0          
C10      C      0.173220000000     0.473880000000     0.182790000000     0          
H6       H      0.139400000000     0.479500000000     0.195300000000     0          
C11      C      0.401970000000     0.493470000000     0.361740000000     0          
C12      C      0.135040000000     0.465510000000     0.096650000000     0          
O8?      O      0.452000000000     0.494600000000     0.353000000000     0          
O12?     O      0.551050000000     0.430340000000     0.465660000000     0          
O11?     O      0.446070000000     0.446070000000     0.446070000000     0          
Zr1      Zr     0.985680000000     0.516780000000     0.907760000000     0          
Cu1      Cu     0.293710000000     0.514130000000     0.791690000000     0          
Cl1      Cl     0.368890000000     0.475050000000     0.789310000000     0          
Cl2      Cl     0.296310000000     0.539260000000     0.872700000000     0          
O1       O      0.119280000000     0.493800000000     0.902830000000     0          
O3       O      0.407870000000     0.534000000000     0.617840000000     0          
O4       O      0.357110000000     0.533010000000     0.549570000000     0          
N1       N      0.217810000000     0.519460000000     0.785570000000     0          
N2       N      0.287350000000     0.523900000000     0.715640000000     0          
C1       C      0.199430000000     0.528580000000     0.738360000000     0          
C2       C      0.147660000000     0.533600000000     0.728330000000     0          
H1       H      0.135800000000     0.542200000000     0.694900000000     0          
C3       C      0.113280000000     0.525900000000     0.768650000000     0          
H2       H      0.077300000000     0.528400000000     0.763100000000     0          
C4       C      0.132350000000     0.514450000000     0.816930000000     0          
C5       C      0.185250000000     0.512080000000     0.823840000000     0          
H3       H      0.198400000000     0.504900000000     0.857100000000     0          
C6       C      0.239230000000     0.533000000000     0.698000000000     0          
C7       C      0.229660000000     0.543300000000     0.647220000000     0          
H4       H      0.195600000000     0.549300000000     0.635700000000     0          
C8       C      0.270450000000     0.544800000000     0.612840000000     0          
H5       H      0.264700000000     0.551600000000     0.577500000000     0          
C9       C      0.319660000000     0.536330000000     0.631170000000     0          
C10      C      0.326780000000     0.526120000000     0.682790000000     0          
H6       H      0.360600000000     0.520500000000     0.695300000000     0          
C11      C      0.098030000000     0.506530000000     0.861740000000     0          
C12      C      0.364960000000     0.534490000000     0.596650000000     0          
O8?      O      0.048000000000     0.505400000000     0.853000000000     0          
O12?     O      0.948950000000     0.569660000000     0.965660000000     0          
O11?     O      0.053930000000     0.553930000000     0.946070000000     0          
Zr1      Zr     0.014320000000     0.016780000000     0.592240000000     0          
Cu1      Cu     0.706290000000     0.014130000000     0.708310000000     0          
Cl1      Cl     0.631110000000     0.975050000000     0.710690000000     0          
Cl2      Cl     0.703690000000     0.039260000000     0.627300000000     0          
O1       O      0.880720000000     0.993800000000     0.597170000000     0          
O3       O      0.592130000000     0.034000000000     0.882160000000     0          
O4       O      0.642890000000     0.033010000000     0.950430000000     0          
N1       N      0.782190000000     0.019460000000     0.714430000000     0          
N2       N      0.712650000000     0.023900000000     0.784360000000     0          
C1       C      0.800570000000     0.028580000000     0.761640000000     0          
C2       C      0.852340000000     0.033600000000     0.771670000000     0          
H1       H      0.864200000000     0.042200000000     0.805100000000     0          
C3       C      0.886720000000     0.025900000000     0.731350000000     0          
H2       H      0.922700000000     0.028400000000     0.736900000000     0          
C4       C      0.867650000000     0.014450000000     0.683070000000     0          
C5       C      0.814750000000     0.012080000000     0.676160000000     0          
H3       H      0.801600000000     0.004900000000     0.642900000000     0          
C6       C      0.760770000000     0.033000000000     0.802000000000     0          
C7       C      0.770340000000     0.043300000000     0.852780000000     0          
H4       H      0.804400000000     0.049300000000     0.864300000000     0          
C8       C      0.729550000000     0.044800000000     0.887160000000     0          
H5       H      0.735300000000     0.051600000000     0.922500000000     0          
C9       C      0.680340000000     0.036330000000     0.868830000000     0          
C10      C      0.673220000000     0.026120000000     0.817210000000     0          
H6       H      0.639400000000     0.020500000000     0.804700000000     0          
C11      C      0.901970000000     0.006530000000     0.638260000000     0          
C12      C      0.635040000000     0.034490000000     0.903350000000     0          
O8?      O      0.952000000000     0.005400000000     0.647000000000     0          
O12?     O      0.051050000000     0.069660000000     0.534340000000     0          
O11?     O      0.946070000000     0.053930000000     0.553930000000     0          
Zr1      Zr     0.485680000000     0.983220000000     0.092240000000     0          
Cu1      Cu     0.793710000000     0.985870000000     0.208310000000     0          
Cl1      Cl     0.868890000000     0.024950000000     0.210690000000     0          
Cl2      Cl     0.796310000000     0.960740000000     0.127300000000     0          
O1       O      0.619280000000     0.006200000000     0.097170000000     0          
O3       O      0.907870000000     0.966000000000     0.382160000000     0          
O4       O      0.857110000000     0.966990000000     0.450430000000     0          
N1       N      0.717810000000     0.980540000000     0.214430000000     0          
N2       N      0.787350000000     0.976100000000     0.284360000000     0          
C1       C      0.699430000000     0.971420000000     0.261640000000     0          
C2       C      0.647660000000     0.966400000000     0.271670000000     0          
H1       H      0.635800000000     0.957800000000     0.305100000000     0          
C3       C      0.613280000000     0.974100000000     0.231350000000     0          
H2       H      0.577300000000     0.971600000000     0.236900000000     0          
C4       C      0.632350000000     0.985550000000     0.183070000000     0          
C5       C      0.685250000000     0.987920000000     0.176160000000     0          
H3       H      0.698400000000     0.995100000000     0.142900000000     0          
C6       C      0.739230000000     0.967000000000     0.302000000000     0          
C7       C      0.729660000000     0.956700000000     0.352780000000     0          
H4       H      0.695600000000     0.950700000000     0.364300000000     0          
C8       C      0.770450000000     0.955200000000     0.387160000000     0          
H5       H      0.764700000000     0.948400000000     0.422500000000     0          
C9       C      0.819660000000     0.963670000000     0.368830000000     0          
C10      C      0.826780000000     0.973880000000     0.317210000000     0          
H6       H      0.860600000000     0.979500000000     0.304700000000     0          
C11      C      0.598030000000     0.993470000000     0.138260000000     0          
C12      C      0.864960000000     0.965510000000     0.403350000000     0          
O8?      O      0.548000000000     0.994600000000     0.147000000000     0          
O12?     O      0.448950000000     0.930340000000     0.034340000000     0          
O11?     O      0.553930000000     0.946070000000     0.053930000000     0          
Zr1      Zr     0.407760000000     0.514320000000     0.483220000000     0          
Cu1      Cu     0.291690000000     0.206290000000     0.485870000000     0          
Cl1      Cl     0.289310000000     0.131110000000     0.524950000000     0          
Cl2      Cl     0.372700000000     0.203690000000     0.460740000000     0          
O1       O      0.402830000000     0.380720000000     0.506200000000     0          
O3       O      0.117840000000     0.092130000000     0.466000000000     0          
O4       O      0.049570000000     0.142890000000     0.466990000000     0          
N1       N      0.285570000000     0.282190000000     0.480540000000     0          
N2       N      0.215640000000     0.212650000000     0.476100000000     0          
C1       C      0.238360000000     0.300570000000     0.471420000000     0          
C2       C      0.228330000000     0.352340000000     0.466400000000     0          
H1       H      0.194900000000     0.364200000000     0.457800000000     0          
C3       C      0.268650000000     0.386720000000     0.474100000000     0          
H2       H      0.263100000000     0.422700000000     0.471600000000     0          
C4       C      0.316930000000     0.367650000000     0.485550000000     0          
C5       C      0.323840000000     0.314750000000     0.487920000000     0          
H3       H      0.357100000000     0.301600000000     0.495100000000     0          
C6       C      0.198000000000     0.260770000000     0.467000000000     0          
C7       C      0.147220000000     0.270340000000     0.456700000000     0          
H4       H      0.135700000000     0.304400000000     0.450700000000     0          
C8       C      0.112840000000     0.229550000000     0.455200000000     0          
H5       H      0.077500000000     0.235300000000     0.448400000000     0          
C9       C      0.131170000000     0.180340000000     0.463670000000     0          
C10      C      0.182790000000     0.173220000000     0.473880000000     0          
H6       H      0.195300000000     0.139400000000     0.479500000000     0          
C11      C      0.361740000000     0.401970000000     0.493470000000     0          
C12      C      0.096650000000     0.135040000000     0.465510000000     0          
O8?      O      0.353000000000     0.452000000000     0.494600000000     0          
O12?     O      0.465660000000     0.551050000000     0.430340000000     0          
Zr1      Zr     0.092240000000     0.485680000000     0.983220000000     0          
Cu1      Cu     0.208310000000     0.793710000000     0.985870000000     0          
Cl1      Cl     0.210690000000     0.868890000000     0.024950000000     0          
Cl2      Cl     0.127300000000     0.796310000000     0.960740000000     0          
O1       O      0.097170000000     0.619280000000     0.006200000000     0          
O3       O      0.382160000000     0.907870000000     0.966000000000     0          
O4       O      0.450430000000     0.857110000000     0.966990000000     0          
N1       N      0.214430000000     0.717810000000     0.980540000000     0          
N2       N      0.284360000000     0.787350000000     0.976100000000     0          
C1       C      0.261640000000     0.699430000000     0.971420000000     0          
C2       C      0.271670000000     0.647660000000     0.966400000000     0          
H1       H      0.305100000000     0.635800000000     0.957800000000     0          
C3       C      0.231350000000     0.613280000000     0.974100000000     0          
H2       H      0.236900000000     0.577300000000     0.971600000000     0          
C4       C      0.183070000000     0.632350000000     0.985550000000     0          
C5       C      0.176160000000     0.685250000000     0.987920000000     0          
H3       H      0.142900000000     0.698400000000     0.995100000000     0          
C6       C      0.302000000000     0.739230000000     0.967000000000     0          
C7       C      0.352780000000     0.729660000000     0.956700000000     0          
H4       H      0.364300000000     0.695600000000     0.950700000000     0          
C8       C      0.387160000000     0.770450000000     0.955200000000     0          
H5       H      0.422500000000     0.764700000000     0.948400000000     0          
C9       C      0.368830000000     0.819660000000     0.963670000000     0          
C10      C      0.317210000000     0.826780000000     0.973880000000     0          
H6       H      0.304700000000     0.860600000000     0.979500000000     0          
C11      C      0.138260000000     0.598030000000     0.993470000000     0          
C12      C      0.403350000000     0.864960000000     0.965510000000     0          
O8?      O      0.147000000000     0.548000000000     0.994600000000     0          
O12?     O      0.034340000000     0.448950000000     0.930340000000     0          
Zr1      Zr     0.907760000000     0.985680000000     0.516780000000     0          
Cu1      Cu     0.791690000000     0.293710000000     0.514130000000     0          
Cl1      Cl     0.789310000000     0.368890000000     0.475050000000     0          
Cl2      Cl     0.872700000000     0.296310000000     0.539260000000     0          
O1       O      0.902830000000     0.119280000000     0.493800000000     0          
O3       O      0.617840000000     0.407870000000     0.534000000000     0          
O4       O      0.549570000000     0.357110000000     0.533010000000     0          
N1       N      0.785570000000     0.217810000000     0.519460000000     0          
N2       N      0.715640000000     0.287350000000     0.523900000000     0          
C1       C      0.738360000000     0.199430000000     0.528580000000     0          
C2       C      0.728330000000     0.147660000000     0.533600000000     0          
H1       H      0.694900000000     0.135800000000     0.542200000000     0          
C3       C      0.768650000000     0.113280000000     0.525900000000     0          
H2       H      0.763100000000     0.077300000000     0.528400000000     0          
C4       C      0.816930000000     0.132350000000     0.514450000000     0          
C5       C      0.823840000000     0.185250000000     0.512080000000     0          
H3       H      0.857100000000     0.198400000000     0.504900000000     0          
C6       C      0.698000000000     0.239230000000     0.533000000000     0          
C7       C      0.647220000000     0.229660000000     0.543300000000     0          
H4       H      0.635700000000     0.195600000000     0.549300000000     0          
C8       C      0.612840000000     0.270450000000     0.544800000000     0          
H5       H      0.577500000000     0.264700000000     0.551600000000     0          
C9       C      0.631170000000     0.319660000000     0.536330000000     0          
C10      C      0.682790000000     0.326780000000     0.526120000000     0          
H6       H      0.695300000000     0.360600000000     0.520500000000     0          
C11      C      0.861740000000     0.098030000000     0.506530000000     0          
C12      C      0.596650000000     0.364960000000     0.534490000000     0          
O8?      O      0.853000000000     0.048000000000     0.505400000000     0          
O12?     O      0.965660000000     0.948950000000     0.569660000000     0          
Zr1      Zr     0.592240000000     0.014320000000     0.016780000000     0          
Cu1      Cu     0.708310000000     0.706290000000     0.014130000000     0          
Cl1      Cl     0.710690000000     0.631110000000     0.975050000000     0          
Cl2      Cl     0.627300000000     0.703690000000     0.039260000000     0          
O1       O      0.597170000000     0.880720000000     0.993800000000     0          
O3       O      0.882160000000     0.592130000000     0.034000000000     0          
O4       O      0.950430000000     0.642890000000     0.033010000000     0          
N1       N      0.714430000000     0.782190000000     0.019460000000     0          
N2       N      0.784360000000     0.712650000000     0.023900000000     0          
C1       C      0.761640000000     0.800570000000     0.028580000000     0          
C2       C      0.771670000000     0.852340000000     0.033600000000     0          
H1       H      0.805100000000     0.864200000000     0.042200000000     0          
C3       C      0.731350000000     0.886720000000     0.025900000000     0          
H2       H      0.736900000000     0.922700000000     0.028400000000     0          
C4       C      0.683070000000     0.867650000000     0.014450000000     0          
C5       C      0.676160000000     0.814750000000     0.012080000000     0          
H3       H      0.642900000000     0.801600000000     0.004900000000     0          
C6       C      0.802000000000     0.760770000000     0.033000000000     0          
C7       C      0.852780000000     0.770340000000     0.043300000000     0          
H4       H      0.864300000000     0.804400000000     0.049300000000     0          
C8       C      0.887160000000     0.729550000000     0.044800000000     0          
H5       H      0.922500000000     0.735300000000     0.051600000000     0          
C9       C      0.868830000000     0.680340000000     0.036330000000     0          
C10      C      0.817210000000     0.673220000000     0.026120000000     0          
H6       H      0.804700000000     0.639400000000     0.020500000000     0          
C11      C      0.638260000000     0.901970000000     0.006530000000     0          
C12      C      0.903350000000     0.635040000000     0.034490000000     0          
O8?      O      0.647000000000     0.952000000000     0.005400000000     0          
O12?     O      0.534340000000     0.051050000000     0.069660000000     0          
Zr1      Zr     0.483220000000     0.407760000000     0.514320000000     0          
Cu1      Cu     0.485870000000     0.291690000000     0.206290000000     0          
Cl1      Cl     0.524950000000     0.289310000000     0.131110000000     0          
Cl2      Cl     0.460740000000     0.372700000000     0.203690000000     0          
O1       O      0.506200000000     0.402830000000     0.380720000000     0          
O3       O      0.466000000000     0.117840000000     0.092130000000     0          
O4       O      0.466990000000     0.049570000000     0.142890000000     0          
N1       N      0.480540000000     0.285570000000     0.282190000000     0          
N2       N      0.476100000000     0.215640000000     0.212650000000     0          
C1       C      0.471420000000     0.238360000000     0.300570000000     0          
C2       C      0.466400000000     0.228330000000     0.352340000000     0          
H1       H      0.457800000000     0.194900000000     0.364200000000     0          
C3       C      0.474100000000     0.268650000000     0.386720000000     0          
H2       H      0.471600000000     0.263100000000     0.422700000000     0          
C4       C      0.485550000000     0.316930000000     0.367650000000     0          
C5       C      0.487920000000     0.323840000000     0.314750000000     0          
H3       H      0.495100000000     0.357100000000     0.301600000000     0          
C6       C      0.467000000000     0.198000000000     0.260770000000     0          
C7       C      0.456700000000     0.147220000000     0.270340000000     0          
H4       H      0.450700000000     0.135700000000     0.304400000000     0          
C8       C      0.455200000000     0.112840000000     0.229550000000     0          
H5       H      0.448400000000     0.077500000000     0.235300000000     0          
C9       C      0.463670000000     0.131170000000     0.180340000000     0          
C10      C      0.473880000000     0.182790000000     0.173220000000     0          
H6       H      0.479500000000     0.195300000000     0.139400000000     0          
C11      C      0.493470000000     0.361740000000     0.401970000000     0          
C12      C      0.465510000000     0.096650000000     0.135040000000     0          
O8?      O      0.494600000000     0.353000000000     0.452000000000     0          
O12?     O      0.430340000000     0.465660000000     0.551050000000     0          
Zr1      Zr     0.983220000000     0.092240000000     0.485680000000     0          
Cu1      Cu     0.985870000000     0.208310000000     0.793710000000     0          
Cl1      Cl     0.024950000000     0.210690000000     0.868890000000     0          
Cl2      Cl     0.960740000000     0.127300000000     0.796310000000     0          
O1       O      0.006200000000     0.097170000000     0.619280000000     0          
O3       O      0.966000000000     0.382160000000     0.907870000000     0          
O4       O      0.966990000000     0.450430000000     0.857110000000     0          
N1       N      0.980540000000     0.214430000000     0.717810000000     0          
N2       N      0.976100000000     0.284360000000     0.787350000000     0          
C1       C      0.971420000000     0.261640000000     0.699430000000     0          
C2       C      0.966400000000     0.271670000000     0.647660000000     0          
H1       H      0.957800000000     0.305100000000     0.635800000000     0          
C3       C      0.974100000000     0.231350000000     0.613280000000     0          
H2       H      0.971600000000     0.236900000000     0.577300000000     0          
C4       C      0.985550000000     0.183070000000     0.632350000000     0          
C5       C      0.987920000000     0.176160000000     0.685250000000     0          
H3       H      0.995100000000     0.142900000000     0.698400000000     0          
C6       C      0.967000000000     0.302000000000     0.739230000000     0          
C7       C      0.956700000000     0.352780000000     0.729660000000     0          
H4       H      0.950700000000     0.364300000000     0.695600000000     0          
C8       C      0.955200000000     0.387160000000     0.770450000000     0          
H5       H      0.948400000000     0.422500000000     0.764700000000     0          
C9       C      0.963670000000     0.368830000000     0.819660000000     0          
C10      C      0.973880000000     0.317210000000     0.826780000000     0          
H6       H      0.979500000000     0.304700000000     0.860600000000     0          
C11      C      0.993470000000     0.138260000000     0.598030000000     0          
C12      C      0.965510000000     0.403350000000     0.864960000000     0          
O8?      O      0.994600000000     0.147000000000     0.548000000000     0          
O12?     O      0.930340000000     0.034340000000     0.448950000000     0          
Zr1      Zr     0.516780000000     0.907760000000     0.985680000000     0          
Cu1      Cu     0.514130000000     0.791690000000     0.293710000000     0          
Cl1      Cl     0.475050000000     0.789310000000     0.368890000000     0          
Cl2      Cl     0.539260000000     0.872700000000     0.296310000000     0          
O1       O      0.493800000000     0.902830000000     0.119280000000     0          
O3       O      0.534000000000     0.617840000000     0.407870000000     0          
O4       O      0.533010000000     0.549570000000     0.357110000000     0          
N1       N      0.519460000000     0.785570000000     0.217810000000     0          
N2       N      0.523900000000     0.715640000000     0.287350000000     0          
C1       C      0.528580000000     0.738360000000     0.199430000000     0          
C2       C      0.533600000000     0.728330000000     0.147660000000     0          
H1       H      0.542200000000     0.694900000000     0.135800000000     0          
C3       C      0.525900000000     0.768650000000     0.113280000000     0          
H2       H      0.528400000000     0.763100000000     0.077300000000     0          
C4       C      0.514450000000     0.816930000000     0.132350000000     0          
C5       C      0.512080000000     0.823840000000     0.185250000000     0          
H3       H      0.504900000000     0.857100000000     0.198400000000     0          
C6       C      0.533000000000     0.698000000000     0.239230000000     0          
C7       C      0.543300000000     0.647220000000     0.229660000000     0          
H4       H      0.549300000000     0.635700000000     0.195600000000     0          
C8       C      0.544800000000     0.612840000000     0.270450000000     0          
H5       H      0.551600000000     0.577500000000     0.264700000000     0          
C9       C      0.536330000000     0.631170000000     0.319660000000     0          
C10      C      0.526120000000     0.682790000000     0.326780000000     0          
H6       H      0.520500000000     0.695300000000     0.360600000000     0          
C11      C      0.506530000000     0.861740000000     0.098030000000     0          
C12      C      0.534490000000     0.596650000000     0.364960000000     0          
O8?      O      0.505400000000     0.853000000000     0.048000000000     0          
O12?     O      0.569660000000     0.965660000000     0.948950000000     0          
Zr1      Zr     0.016780000000     0.592240000000     0.014320000000     0          
Cu1      Cu     0.014130000000     0.708310000000     0.706290000000     0          
Cl1      Cl     0.975050000000     0.710690000000     0.631110000000     0          
Cl2      Cl     0.039260000000     0.627300000000     0.703690000000     0          
O1       O      0.993800000000     0.597170000000     0.880720000000     0          
O3       O      0.034000000000     0.882160000000     0.592130000000     0          
O4       O      0.033010000000     0.950430000000     0.642890000000     0          
N1       N      0.019460000000     0.714430000000     0.782190000000     0          
N2       N      0.023900000000     0.784360000000     0.712650000000     0          
C1       C      0.028580000000     0.761640000000     0.800570000000     0          
C2       C      0.033600000000     0.771670000000     0.852340000000     0          
H1       H      0.042200000000     0.805100000000     0.864200000000     0          
C3       C      0.025900000000     0.731350000000     0.886720000000     0          
H2       H      0.028400000000     0.736900000000     0.922700000000     0          
C4       C      0.014450000000     0.683070000000     0.867650000000     0          
C5       C      0.012080000000     0.676160000000     0.814750000000     0          
H3       H      0.004900000000     0.642900000000     0.801600000000     0          
C6       C      0.033000000000     0.802000000000     0.760770000000     0          
C7       C      0.043300000000     0.852780000000     0.770340000000     0          
H4       H      0.049300000000     0.864300000000     0.804400000000     0          
C8       C      0.044800000000     0.887160000000     0.729550000000     0          
H5       H      0.051600000000     0.922500000000     0.735300000000     0          
C9       C      0.036330000000     0.868830000000     0.680340000000     0          
C10      C      0.026120000000     0.817210000000     0.673220000000     0          
H6       H      0.020500000000     0.804700000000     0.639400000000     0          
C11      C      0.006530000000     0.638260000000     0.901970000000     0          
C12      C      0.034490000000     0.903350000000     0.635040000000     0          
O8?      O      0.005400000000     0.647000000000     0.952000000000     0          
O12?     O      0.069660000000     0.534340000000     0.051050000000     0          
Zr1      Zr     0.485680000000     0.516780000000     0.592240000000     0          
Cu1      Cu     0.793710000000     0.514130000000     0.708310000000     0          
Cl1      Cl     0.868890000000     0.475050000000     0.710690000000     0          
Cl2      Cl     0.796310000000     0.539260000000     0.627300000000     0          
O1       O      0.619280000000     0.493800000000     0.597170000000     0          
O3       O      0.907870000000     0.534000000000     0.882160000000     0          
O4       O      0.857110000000     0.533010000000     0.950430000000     0          
N1       N      0.717810000000     0.519460000000     0.714430000000     0          
N2       N      0.787350000000     0.523900000000     0.784360000000     0          
C1       C      0.699430000000     0.528580000000     0.761640000000     0          
C2       C      0.647660000000     0.533600000000     0.771670000000     0          
H1       H      0.635800000000     0.542200000000     0.805100000000     0          
C3       C      0.613280000000     0.525900000000     0.731350000000     0          
H2       H      0.577300000000     0.528400000000     0.736900000000     0          
C4       C      0.632350000000     0.514450000000     0.683070000000     0          
C5       C      0.685250000000     0.512080000000     0.676160000000     0          
H3       H      0.698400000000     0.504900000000     0.642900000000     0          
C6       C      0.739230000000     0.533000000000     0.802000000000     0          
C7       C      0.729660000000     0.543300000000     0.852780000000     0          
H4       H      0.695600000000     0.549300000000     0.864300000000     0          
C8       C      0.770450000000     0.544800000000     0.887160000000     0          
H5       H      0.764700000000     0.551600000000     0.922500000000     0          
C9       C      0.819660000000     0.536330000000     0.868830000000     0          
C10      C      0.826780000000     0.526120000000     0.817210000000     0          
H6       H      0.860600000000     0.520500000000     0.804700000000     0          
C11      C      0.598030000000     0.506530000000     0.638260000000     0          
C12      C      0.864960000000     0.534490000000     0.903350000000     0          
O8?      O      0.548000000000     0.505400000000     0.647000000000     0          
O12?     O      0.448950000000     0.569660000000     0.534340000000     0          
O11?     O      0.553930000000     0.553930000000     0.553930000000     0          
Zr1      Zr     0.014320000000     0.483220000000     0.092240000000     0          
Cu1      Cu     0.706290000000     0.485870000000     0.208310000000     0          
Cl1      Cl     0.631110000000     0.524950000000     0.210690000000     0          
Cl2      Cl     0.703690000000     0.460740000000     0.127300000000     0          
O1       O      0.880720000000     0.506200000000     0.097170000000     0          
O3       O      0.592130000000     0.466000000000     0.382160000000     0          
O4       O      0.642890000000     0.466990000000     0.450430000000     0          
N1       N      0.782190000000     0.480540000000     0.214430000000     0          
N2       N      0.712650000000     0.476100000000     0.284360000000     0          
C1       C      0.800570000000     0.471420000000     0.261640000000     0          
C2       C      0.852340000000     0.466400000000     0.271670000000     0          
H1       H      0.864200000000     0.457800000000     0.305100000000     0          
C3       C      0.886720000000     0.474100000000     0.231350000000     0          
H2       H      0.922700000000     0.471600000000     0.236900000000     0          
C4       C      0.867650000000     0.485550000000     0.183070000000     0          
C5       C      0.814750000000     0.487920000000     0.176160000000     0          
H3       H      0.801600000000     0.495100000000     0.142900000000     0          
C6       C      0.760770000000     0.467000000000     0.302000000000     0          
C7       C      0.770340000000     0.456700000000     0.352780000000     0          
H4       H      0.804400000000     0.450700000000     0.364300000000     0          
C8       C      0.729550000000     0.455200000000     0.387160000000     0          
H5       H      0.735300000000     0.448400000000     0.422500000000     0          
C9       C      0.680340000000     0.463670000000     0.368830000000     0          
C10      C      0.673220000000     0.473880000000     0.317210000000     0          
H6       H      0.639400000000     0.479500000000     0.304700000000     0          
C11      C      0.901970000000     0.493470000000     0.138260000000     0          
C12      C      0.635040000000     0.465510000000     0.403350000000     0          
O8?      O      0.952000000000     0.494600000000     0.147000000000     0          
O12?     O      0.051050000000     0.430340000000     0.034340000000     0          
O11?     O      0.946070000000     0.446070000000     0.053930000000     0          
Zr1      Zr     0.985680000000     0.983220000000     0.407760000000     0          
Cu1      Cu     0.293710000000     0.985870000000     0.291690000000     0          
Cl1      Cl     0.368890000000     0.024950000000     0.289310000000     0          
Cl2      Cl     0.296310000000     0.960740000000     0.372700000000     0          
O1       O      0.119280000000     0.006200000000     0.402830000000     0          
O3       O      0.407870000000     0.966000000000     0.117840000000     0          
O4       O      0.357110000000     0.966990000000     0.049570000000     0          
N1       N      0.217810000000     0.980540000000     0.285570000000     0          
N2       N      0.287350000000     0.976100000000     0.215640000000     0          
C1       C      0.199430000000     0.971420000000     0.238360000000     0          
C2       C      0.147660000000     0.966400000000     0.228330000000     0          
H1       H      0.135800000000     0.957800000000     0.194900000000     0          
C3       C      0.113280000000     0.974100000000     0.268650000000     0          
H2       H      0.077300000000     0.971600000000     0.263100000000     0          
C4       C      0.132350000000     0.985550000000     0.316930000000     0          
C5       C      0.185250000000     0.987920000000     0.323840000000     0          
H3       H      0.198400000000     0.995100000000     0.357100000000     0          
C6       C      0.239230000000     0.967000000000     0.198000000000     0          
C7       C      0.229660000000     0.956700000000     0.147220000000     0          
H4       H      0.195600000000     0.950700000000     0.135700000000     0          
C8       C      0.270450000000     0.955200000000     0.112840000000     0          
H5       H      0.264700000000     0.948400000000     0.077500000000     0          
C9       C      0.319660000000     0.963670000000     0.131170000000     0          
C10      C      0.326780000000     0.973880000000     0.182790000000     0          
H6       H      0.360600000000     0.979500000000     0.195300000000     0          
C11      C      0.098030000000     0.993470000000     0.361740000000     0          
C12      C      0.364960000000     0.965510000000     0.096650000000     0          
O8?      O      0.048000000000     0.994600000000     0.353000000000     0          
O12?     O      0.948950000000     0.930340000000     0.465660000000     0          
O11?     O      0.053930000000     0.946070000000     0.446070000000     0          
Zr1      Zr     0.514320000000     0.016780000000     0.907760000000     0          
Cu1      Cu     0.206290000000     0.014130000000     0.791690000000     0          
Cl1      Cl     0.131110000000     0.975050000000     0.789310000000     0          
Cl2      Cl     0.203690000000     0.039260000000     0.872700000000     0          
O1       O      0.380720000000     0.993800000000     0.902830000000     0          
O3       O      0.092130000000     0.034000000000     0.617840000000     0          
O4       O      0.142890000000     0.033010000000     0.549570000000     0          
N1       N      0.282190000000     0.019460000000     0.785570000000     0          
N2       N      0.212650000000     0.023900000000     0.715640000000     0          
C1       C      0.300570000000     0.028580000000     0.738360000000     0          
C2       C      0.352340000000     0.033600000000     0.728330000000     0          
H1       H      0.364200000000     0.042200000000     0.694900000000     0          
C3       C      0.386720000000     0.025900000000     0.768650000000     0          
H2       H      0.422700000000     0.028400000000     0.763100000000     0          
C4       C      0.367650000000     0.014450000000     0.816930000000     0          
C5       C      0.314750000000     0.012080000000     0.823840000000     0          
H3       H      0.301600000000     0.004900000000     0.857100000000     0          
C6       C      0.260770000000     0.033000000000     0.698000000000     0          
C7       C      0.270340000000     0.043300000000     0.647220000000     0          
H4       H      0.304400000000     0.049300000000     0.635700000000     0          
C8       C      0.229550000000     0.044800000000     0.612840000000     0          
H5       H      0.235300000000     0.051600000000     0.577500000000     0          
C9       C      0.180340000000     0.036330000000     0.631170000000     0          
C10      C      0.173220000000     0.026120000000     0.682790000000     0          
H6       H      0.139400000000     0.020500000000     0.695300000000     0          
C11      C      0.401970000000     0.006530000000     0.861740000000     0          
C12      C      0.135040000000     0.034490000000     0.596650000000     0          
O8?      O      0.452000000000     0.005400000000     0.853000000000     0          
O12?     O      0.551050000000     0.069660000000     0.965660000000     0          
O11?     O      0.446070000000     0.053930000000     0.946070000000     0          
Zr1      Zr     0.592240000000     0.485680000000     0.516780000000     0          
Cu1      Cu     0.708310000000     0.793710000000     0.514130000000     0          
Cl1      Cl     0.710690000000     0.868890000000     0.475050000000     0          
Cl2      Cl     0.627300000000     0.796310000000     0.539260000000     0          
O1       O      0.597170000000     0.619280000000     0.493800000000     0          
O3       O      0.882160000000     0.907870000000     0.534000000000     0          
O4       O      0.950430000000     0.857110000000     0.533010000000     0          
N1       N      0.714430000000     0.717810000000     0.519460000000     0          
N2       N      0.784360000000     0.787350000000     0.523900000000     0          
C1       C      0.761640000000     0.699430000000     0.528580000000     0          
C2       C      0.771670000000     0.647660000000     0.533600000000     0          
H1       H      0.805100000000     0.635800000000     0.542200000000     0          
C3       C      0.731350000000     0.613280000000     0.525900000000     0          
H2       H      0.736900000000     0.577300000000     0.528400000000     0          
C4       C      0.683070000000     0.632350000000     0.514450000000     0          
C5       C      0.676160000000     0.685250000000     0.512080000000     0          
H3       H      0.642900000000     0.698400000000     0.504900000000     0          
C6       C      0.802000000000     0.739230000000     0.533000000000     0          
C7       C      0.852780000000     0.729660000000     0.543300000000     0          
H4       H      0.864300000000     0.695600000000     0.549300000000     0          
C8       C      0.887160000000     0.770450000000     0.544800000000     0          
H5       H      0.922500000000     0.764700000000     0.551600000000     0          
C9       C      0.868830000000     0.819660000000     0.536330000000     0          
C10      C      0.817210000000     0.826780000000     0.526120000000     0          
H6       H      0.804700000000     0.860600000000     0.520500000000     0          
C11      C      0.638260000000     0.598030000000     0.506530000000     0          
C12      C      0.903350000000     0.864960000000     0.534490000000     0          
O8?      O      0.647000000000     0.548000000000     0.505400000000     0          
O12?     O      0.534340000000     0.448950000000     0.569660000000     0          
Zr1      Zr     0.907760000000     0.514320000000     0.016780000000     0          
Cu1      Cu     0.791690000000     0.206290000000     0.014130000000     0          
Cl1      Cl     0.789310000000     0.131110000000     0.975050000000     0          
Cl2      Cl     0.872700000000     0.203690000000     0.039260000000     0          
O1       O      0.902830000000     0.380720000000     0.993800000000     0          
O3       O      0.617840000000     0.092130000000     0.034000000000     0          
O4       O      0.549570000000     0.142890000000     0.033010000000     0          
N1       N      0.785570000000     0.282190000000     0.019460000000     0          
N2       N      0.715640000000     0.212650000000     0.023900000000     0          
C1       C      0.738360000000     0.300570000000     0.028580000000     0          
C2       C      0.728330000000     0.352340000000     0.033600000000     0          
H1       H      0.694900000000     0.364200000000     0.042200000000     0          
C3       C      0.768650000000     0.386720000000     0.025900000000     0          
H2       H      0.763100000000     0.422700000000     0.028400000000     0          
C4       C      0.816930000000     0.367650000000     0.014450000000     0          
C5       C      0.823840000000     0.314750000000     0.012080000000     0          
H3       H      0.857100000000     0.301600000000     0.004900000000     0          
C6       C      0.698000000000     0.260770000000     0.033000000000     0          
C7       C      0.647220000000     0.270340000000     0.043300000000     0          
H4       H      0.635700000000     0.304400000000     0.049300000000     0          
C8       C      0.612840000000     0.229550000000     0.044800000000     0          
H5       H      0.577500000000     0.235300000000     0.051600000000     0          
C9       C      0.631170000000     0.180340000000     0.036330000000     0          
C10      C      0.682790000000     0.173220000000     0.026120000000     0          
H6       H      0.695300000000     0.139400000000     0.020500000000     0          
C11      C      0.861740000000     0.401970000000     0.006530000000     0          
C12      C      0.596650000000     0.135040000000     0.034490000000     0          
O8?      O      0.853000000000     0.452000000000     0.005400000000     0          
O12?     O      0.965660000000     0.551050000000     0.069660000000     0          
Zr1      Zr     0.092240000000     0.014320000000     0.483220000000     0          
Cu1      Cu     0.208310000000     0.706290000000     0.485870000000     0          
Cl1      Cl     0.210690000000     0.631110000000     0.524950000000     0          
Cl2      Cl     0.127300000000     0.703690000000     0.460740000000     0          
O1       O      0.097170000000     0.880720000000     0.506200000000     0          
O3       O      0.382160000000     0.592130000000     0.466000000000     0          
O4       O      0.450430000000     0.642890000000     0.466990000000     0          
N1       N      0.214430000000     0.782190000000     0.480540000000     0          
N2       N      0.284360000000     0.712650000000     0.476100000000     0          
C1       C      0.261640000000     0.800570000000     0.471420000000     0          
C2       C      0.271670000000     0.852340000000     0.466400000000     0          
H1       H      0.305100000000     0.864200000000     0.457800000000     0          
C3       C      0.231350000000     0.886720000000     0.474100000000     0          
H2       H      0.236900000000     0.922700000000     0.471600000000     0          
C4       C      0.183070000000     0.867650000000     0.485550000000     0          
C5       C      0.176160000000     0.814750000000     0.487920000000     0          
H3       H      0.142900000000     0.801600000000     0.495100000000     0          
C6       C      0.302000000000     0.760770000000     0.467000000000     0          
C7       C      0.352780000000     0.770340000000     0.456700000000     0          
H4       H      0.364300000000     0.804400000000     0.450700000000     0          
C8       C      0.387160000000     0.729550000000     0.455200000000     0          
H5       H      0.422500000000     0.735300000000     0.448400000000     0          
C9       C      0.368830000000     0.680340000000     0.463670000000     0          
C10      C      0.317210000000     0.673220000000     0.473880000000     0          
H6       H      0.304700000000     0.639400000000     0.479500000000     0          
C11      C      0.138260000000     0.901970000000     0.493470000000     0          
C12      C      0.403350000000     0.635040000000     0.465510000000     0          
O8?      O      0.147000000000     0.952000000000     0.494600000000     0          
O12?     O      0.034340000000     0.051050000000     0.430340000000     0          
Zr1      Zr     0.407760000000     0.985680000000     0.983220000000     0          
Cu1      Cu     0.291690000000     0.293710000000     0.985870000000     0          
Cl1      Cl     0.289310000000     0.368890000000     0.024950000000     0          
Cl2      Cl     0.372700000000     0.296310000000     0.960740000000     0          
O1       O      0.402830000000     0.119280000000     0.006200000000     0          
O3       O      0.117840000000     0.407870000000     0.966000000000     0          
O4       O      0.049570000000     0.357110000000     0.966990000000     0          
N1       N      0.285570000000     0.217810000000     0.980540000000     0          
N2       N      0.215640000000     0.287350000000     0.976100000000     0          
C1       C      0.238360000000     0.199430000000     0.971420000000     0          
C2       C      0.228330000000     0.147660000000     0.966400000000     0          
H1       H      0.194900000000     0.135800000000     0.957800000000     0          
C3       C      0.268650000000     0.113280000000     0.974100000000     0          
H2       H      0.263100000000     0.077300000000     0.971600000000     0          
C4       C      0.316930000000     0.132350000000     0.985550000000     0          
C5       C      0.323840000000     0.185250000000     0.987920000000     0          
H3       H      0.357100000000     0.198400000000     0.995100000000     0          
C6       C      0.198000000000     0.239230000000     0.967000000000     0          
C7       C      0.147220000000     0.229660000000     0.956700000000     0          
H4       H      0.135700000000     0.195600000000     0.950700000000     0          
C8       C      0.112840000000     0.270450000000     0.955200000000     0          
H5       H      0.077500000000     0.264700000000     0.948400000000     0          
C9       C      0.131170000000     0.319660000000     0.963670000000     0          
C10      C      0.182790000000     0.326780000000     0.973880000000     0          
H6       H      0.195300000000     0.360600000000     0.979500000000     0          
C11      C      0.361740000000     0.098030000000     0.993470000000     0          
C12      C      0.096650000000     0.364960000000     0.965510000000     0          
O8?      O      0.353000000000     0.048000000000     0.994600000000     0          
O12?     O      0.465660000000     0.948950000000     0.930340000000     0          
Zr1      Zr     0.516780000000     0.592240000000     0.485680000000     0          
Cu1      Cu     0.514130000000     0.708310000000     0.793710000000     0          
Cl1      Cl     0.475050000000     0.710690000000     0.868890000000     0          
Cl2      Cl     0.539260000000     0.627300000000     0.796310000000     0          
O1       O      0.493800000000     0.597170000000     0.619280000000     0          
O3       O      0.534000000000     0.882160000000     0.907870000000     0          
O4       O      0.533010000000     0.950430000000     0.857110000000     0          
N1       N      0.519460000000     0.714430000000     0.717810000000     0          
N2       N      0.523900000000     0.784360000000     0.787350000000     0          
C1       C      0.528580000000     0.761640000000     0.699430000000     0          
C2       C      0.533600000000     0.771670000000     0.647660000000     0          
H1       H      0.542200000000     0.805100000000     0.635800000000     0          
C3       C      0.525900000000     0.731350000000     0.613280000000     0          
H2       H      0.528400000000     0.736900000000     0.577300000000     0          
C4       C      0.514450000000     0.683070000000     0.632350000000     0          
C5       C      0.512080000000     0.676160000000     0.685250000000     0          
H3       H      0.504900000000     0.642900000000     0.698400000000     0          
C6       C      0.533000000000     0.802000000000     0.739230000000     0          
C7       C      0.543300000000     0.852780000000     0.729660000000     0          
H4       H      0.549300000000     0.864300000000     0.695600000000     0          
C8       C      0.544800000000     0.887160000000     0.770450000000     0          
H5       H      0.551600000000     0.922500000000     0.764700000000     0          
C9       C      0.536330000000     0.868830000000     0.819660000000     0          
C10      C      0.526120000000     0.817210000000     0.826780000000     0          
H6       H      0.520500000000     0.804700000000     0.860600000000     0          
C11      C      0.506530000000     0.638260000000     0.598030000000     0          
C12      C      0.534490000000     0.903350000000     0.864960000000     0          
O8?      O      0.505400000000     0.647000000000     0.548000000000     0          
O12?     O      0.569660000000     0.534340000000     0.448950000000     0          
Zr1      Zr     0.016780000000     0.907760000000     0.514320000000     0          
Cu1      Cu     0.014130000000     0.791690000000     0.206290000000     0          
Cl1      Cl     0.975050000000     0.789310000000     0.131110000000     0          
Cl2      Cl     0.039260000000     0.872700000000     0.203690000000     0          
O1       O      0.993800000000     0.902830000000     0.380720000000     0          
O3       O      0.034000000000     0.617840000000     0.092130000000     0          
O4       O      0.033010000000     0.549570000000     0.142890000000     0          
N1       N      0.019460000000     0.785570000000     0.282190000000     0          
N2       N      0.023900000000     0.715640000000     0.212650000000     0          
C1       C      0.028580000000     0.738360000000     0.300570000000     0          
C2       C      0.033600000000     0.728330000000     0.352340000000     0          
H1       H      0.042200000000     0.694900000000     0.364200000000     0          
C3       C      0.025900000000     0.768650000000     0.386720000000     0          
H2       H      0.028400000000     0.763100000000     0.422700000000     0          
C4       C      0.014450000000     0.816930000000     0.367650000000     0          
C5       C      0.012080000000     0.823840000000     0.314750000000     0          
H3       H      0.004900000000     0.857100000000     0.301600000000     0          
C6       C      0.033000000000     0.698000000000     0.260770000000     0          
C7       C      0.043300000000     0.647220000000     0.270340000000     0          
H4       H      0.049300000000     0.635700000000     0.304400000000     0          
C8       C      0.044800000000     0.612840000000     0.229550000000     0          
H5       H      0.051600000000     0.577500000000     0.235300000000     0          
C9       C      0.036330000000     0.631170000000     0.180340000000     0          
C10      C      0.026120000000     0.682790000000     0.173220000000     0          
H6       H      0.020500000000     0.695300000000     0.139400000000     0          
C11      C      0.006530000000     0.861740000000     0.401970000000     0          
C12      C      0.034490000000     0.596650000000     0.135040000000     0          
O8?      O      0.005400000000     0.853000000000     0.452000000000     0          
O12?     O      0.069660000000     0.965660000000     0.551050000000     0          
Zr1      Zr     0.483220000000     0.092240000000     0.014320000000     0          
Cu1      Cu     0.485870000000     0.208310000000     0.706290000000     0          
Cl1      Cl     0.524950000000     0.210690000000     0.631110000000     0          
Cl2      Cl     0.460740000000     0.127300000000     0.703690000000     0          
O1       O      0.506200000000     0.097170000000     0.880720000000     0          
O3       O      0.466000000000     0.382160000000     0.592130000000     0          
O4       O      0.466990000000     0.450430000000     0.642890000000     0          
N1       N      0.480540000000     0.214430000000     0.782190000000     0          
N2       N      0.476100000000     0.284360000000     0.712650000000     0          
C1       C      0.471420000000     0.261640000000     0.800570000000     0          
C2       C      0.466400000000     0.271670000000     0.852340000000     0          
H1       H      0.457800000000     0.305100000000     0.864200000000     0          
C3       C      0.474100000000     0.231350000000     0.886720000000     0          
H2       H      0.471600000000     0.236900000000     0.922700000000     0          
C4       C      0.485550000000     0.183070000000     0.867650000000     0          
C5       C      0.487920000000     0.176160000000     0.814750000000     0          
H3       H      0.495100000000     0.142900000000     0.801600000000     0          
C6       C      0.467000000000     0.302000000000     0.760770000000     0          
C7       C      0.456700000000     0.352780000000     0.770340000000     0          
H4       H      0.450700000000     0.364300000000     0.804400000000     0          
C8       C      0.455200000000     0.387160000000     0.729550000000     0          
H5       H      0.448400000000     0.422500000000     0.735300000000     0          
C9       C      0.463670000000     0.368830000000     0.680340000000     0          
C10      C      0.473880000000     0.317210000000     0.673220000000     0          
H6       H      0.479500000000     0.304700000000     0.639400000000     0          
C11      C      0.493470000000     0.138260000000     0.901970000000     0          
C12      C      0.465510000000     0.403350000000     0.635040000000     0          
O8?      O      0.494600000000     0.147000000000     0.952000000000     0          
O12?     O      0.430340000000     0.034340000000     0.051050000000     0          
Zr1      Zr     0.983220000000     0.407760000000     0.985680000000     0          
Cu1      Cu     0.985870000000     0.291690000000     0.293710000000     0          
Cl1      Cl     0.024950000000     0.289310000000     0.368890000000     0          
Cl2      Cl     0.960740000000     0.372700000000     0.296310000000     0          
O1       O      0.006200000000     0.402830000000     0.119280000000     0          
O3       O      0.966000000000     0.117840000000     0.407870000000     0          
O4       O      0.966990000000     0.049570000000     0.357110000000     0          
N1       N      0.980540000000     0.285570000000     0.217810000000     0          
N2       N      0.976100000000     0.215640000000     0.287350000000     0          
C1       C      0.971420000000     0.238360000000     0.199430000000     0          
C2       C      0.966400000000     0.228330000000     0.147660000000     0          
H1       H      0.957800000000     0.194900000000     0.135800000000     0          
C3       C      0.974100000000     0.268650000000     0.113280000000     0          
H2       H      0.971600000000     0.263100000000     0.077300000000     0          
C4       C      0.985550000000     0.316930000000     0.132350000000     0          
C5       C      0.987920000000     0.323840000000     0.185250000000     0          
H3       H      0.995100000000     0.357100000000     0.198400000000     0          
C6       C      0.967000000000     0.198000000000     0.239230000000     0          
C7       C      0.956700000000     0.147220000000     0.229660000000     0          
H4       H      0.950700000000     0.135700000000     0.195600000000     0          
C8       C      0.955200000000     0.112840000000     0.270450000000     0          
H5       H      0.948400000000     0.077500000000     0.264700000000     0          
C9       C      0.963670000000     0.131170000000     0.319660000000     0          
C10      C      0.973880000000     0.182790000000     0.326780000000     0          
H6       H      0.979500000000     0.195300000000     0.360600000000     0          
C11      C      0.993470000000     0.361740000000     0.098030000000     0          
C12      C      0.965510000000     0.096650000000     0.364960000000     0          
O8?      O      0.994600000000     0.353000000000     0.048000000000     0          
O12?     O      0.930340000000     0.465660000000     0.948950000000     0          


