data_QURPOK

_audit_creation_method RASPA-1.0
_audit_creation_date 2020-11-2
_audit_author_name 'Rocio Bueno-Perez'

_cell_length_a    26.255
_cell_length_b    26.255
_cell_length_c    26.255
_cell_angle_alpha 90
_cell_angle_beta  90
_cell_angle_gamma 90
_cell_volume      18098.2

_symmetry_cell_setting          cubic
_symmetry_space_group_name_Hall 'P 1'
_symmetry_space_group_name_H-M  'P 1'
_symmetry_Int_Tables_number     1

_symmetry_equiv_pos_as_xyz 'x,y,z'

loop_
_atom_site_label
_atom_site_type_symbol
_atom_site_fract_x
_atom_site_fract_y
_atom_site_fract_z
_atom_site_charge
Zr1      Zr     0.511920000000     0.513850000000     0.092650000000     0          
O1       O      0.551100000000     0.567700000000     0.037600000000     0          
O3       O      0.588800000000     0.529300000000     0.121090000000     0          
O4       O      0.642600000000     0.528200000000     0.053530000000     0          
O5       O      0.876800000000     0.494600000000     0.407610000000     0          
O6       O      0.944810000000     0.510600000000     0.355700000000     0          
C1       C      0.755400000000     0.536600000000     0.204500000000     0          
C2       C      0.764300000000     0.548300000000     0.155500000000     0          
H1       H      0.797000000000     0.557600000000     0.145500000000     0          
C3       C      0.725500000000     0.546600000000     0.119300000000     0          
H2       H      0.732400000000     0.551300000000     0.084800000000     0          
C4       C      0.676400000000     0.537800000000     0.136400000000     0          
C5       C      0.668100000000     0.531600000000     0.188700000000     0          
H3       H      0.634800000000     0.529500000000     0.200700000000     0          
C6       C      0.794300000000     0.532400000000     0.245300000000     0          
C7       C      0.845700000000     0.538200000000     0.235200000000     0          
H4       H      0.856800000000     0.546800000000     0.202700000000     0          
C8       C      0.880000000000     0.531000000000     0.273800000000     0          
H5       H      0.914600000000     0.536200000000     0.268400000000     0          
C9       C      0.862100000000     0.515700000000     0.321600000000     0          
C10      C      0.810000000000     0.509900000000     0.329000000000     0          
H6       H      0.797200000000     0.499800000000     0.360500000000     0          
C11      C      0.633200000000     0.531200000000     0.100200000000     0          
C12      C      0.897800000000     0.506300000000     0.365200000000     0          
N1       N      0.707100000000     0.528500000000     0.222200000000     0          
N2       N      0.778600000000     0.519100000000     0.290300000000     0          
Fe1      Fe     0.696560000000     0.516190000000     0.300680000000     0          
Br3?     Br     0.606100000000     0.490800000000     0.298400000000     0          
Br4?     Br     0.693700000000     0.534400000000     0.394100000000     0          
O2       O      0.446900000000     0.553100000000     0.053100000000     0          
C13      C      0.359900000000     0.640100000000     0.140100000000     0          
C14      C      0.324900000000     0.675100000000     0.175100000000     0          
N3       N      0.382700000000     0.617300000000     0.117300000000     0          
Zr1      Zr     0.988080000000     0.486150000000     0.592650000000     0          
O1       O      0.948900000000     0.432300000000     0.537600000000     0          
O3       O      0.911200000000     0.470700000000     0.621090000000     0          
O4       O      0.857400000000     0.471800000000     0.553530000000     0          
O5       O      0.623200000000     0.505400000000     0.907610000000     0          
O6       O      0.555190000000     0.489400000000     0.855700000000     0          
C1       C      0.744600000000     0.463400000000     0.704500000000     0          
C2       C      0.735700000000     0.451700000000     0.655500000000     0          
H1       H      0.703000000000     0.442400000000     0.645500000000     0          
C3       C      0.774500000000     0.453400000000     0.619300000000     0          
H2       H      0.767600000000     0.448700000000     0.584800000000     0          
C4       C      0.823600000000     0.462200000000     0.636400000000     0          
C5       C      0.831900000000     0.468400000000     0.688700000000     0          
H3       H      0.865200000000     0.470500000000     0.700700000000     0          
C6       C      0.705700000000     0.467600000000     0.745300000000     0          
C7       C      0.654300000000     0.461800000000     0.735200000000     0          
H4       H      0.643200000000     0.453200000000     0.702700000000     0          
C8       C      0.620000000000     0.469000000000     0.773800000000     0          
H5       H      0.585400000000     0.463800000000     0.768400000000     0          
C9       C      0.637900000000     0.484300000000     0.821600000000     0          
C10      C      0.690000000000     0.490100000000     0.829000000000     0          
H6       H      0.702800000000     0.500200000000     0.860500000000     0          
C11      C      0.866800000000     0.468800000000     0.600200000000     0          
C12      C      0.602200000000     0.493700000000     0.865200000000     0          
N1       N      0.792900000000     0.471500000000     0.722200000000     0          
N2       N      0.721400000000     0.480900000000     0.790300000000     0          
Fe1      Fe     0.803440000000     0.483810000000     0.800680000000     0          
Br3?     Br     0.893900000000     0.509200000000     0.798400000000     0          
Br4?     Br     0.806300000000     0.465600000000     0.894100000000     0          
O2       O      0.053100000000     0.446900000000     0.553100000000     0          
C13      C      0.140100000000     0.359900000000     0.640100000000     0          
C14      C      0.175100000000     0.324900000000     0.675100000000     0          
N3       N      0.117300000000     0.382700000000     0.617300000000     0          
Zr1      Zr     0.011920000000     0.986150000000     0.907350000000     0          
O1       O      0.051100000000     0.932300000000     0.962400000000     0          
O3       O      0.088800000000     0.970700000000     0.878910000000     0          
O4       O      0.142600000000     0.971800000000     0.946470000000     0          
O5       O      0.376800000000     0.005400000000     0.592390000000     0          
O6       O      0.444810000000     0.989400000000     0.644300000000     0          
C1       C      0.255400000000     0.963400000000     0.795500000000     0          
C2       C      0.264300000000     0.951700000000     0.844500000000     0          
H1       H      0.297000000000     0.942400000000     0.854500000000     0          
C3       C      0.225500000000     0.953400000000     0.880700000000     0          
H2       H      0.232400000000     0.948700000000     0.915200000000     0          
C4       C      0.176400000000     0.962200000000     0.863600000000     0          
C5       C      0.168100000000     0.968400000000     0.811300000000     0          
H3       H      0.134800000000     0.970500000000     0.799300000000     0          
C6       C      0.294300000000     0.967600000000     0.754700000000     0          
C7       C      0.345700000000     0.961800000000     0.764800000000     0          
H4       H      0.356800000000     0.953200000000     0.797300000000     0          
C8       C      0.380000000000     0.969000000000     0.726200000000     0          
H5       H      0.414600000000     0.963800000000     0.731600000000     0          
C9       C      0.362100000000     0.984300000000     0.678400000000     0          
C10      C      0.310000000000     0.990100000000     0.671000000000     0          
H6       H      0.297200000000     0.000200000000     0.639500000000     0          
C11      C      0.133200000000     0.968800000000     0.899800000000     0          
C12      C      0.397800000000     0.993700000000     0.634800000000     0          
N1       N      0.207100000000     0.971500000000     0.777800000000     0          
N2       N      0.278600000000     0.980900000000     0.709700000000     0          
Fe1      Fe     0.196560000000     0.983810000000     0.699320000000     0          
Br3?     Br     0.106100000000     0.009200000000     0.701600000000     0          
Br4?     Br     0.193700000000     0.965600000000     0.605900000000     0          
O2       O      0.946900000000     0.946900000000     0.946900000000     0          
C13      C      0.859900000000     0.859900000000     0.859900000000     0          
C14      C      0.824900000000     0.824900000000     0.824900000000     0          
N3       N      0.882700000000     0.882700000000     0.882700000000     0          
Zr1      Zr     0.488080000000     0.013850000000     0.407350000000     0          
O1       O      0.448900000000     0.067700000000     0.462400000000     0          
O3       O      0.411200000000     0.029300000000     0.378910000000     0          
O4       O      0.357400000000     0.028200000000     0.446470000000     0          
O5       O      0.123200000000     0.994600000000     0.092390000000     0          
O6       O      0.055190000000     0.010600000000     0.144300000000     0          
C1       C      0.244600000000     0.036600000000     0.295500000000     0          
C2       C      0.235700000000     0.048300000000     0.344500000000     0          
H1       H      0.203000000000     0.057600000000     0.354500000000     0          
C3       C      0.274500000000     0.046600000000     0.380700000000     0          
H2       H      0.267600000000     0.051300000000     0.415200000000     0          
C4       C      0.323600000000     0.037800000000     0.363600000000     0          
C5       C      0.331900000000     0.031600000000     0.311300000000     0          
H3       H      0.365200000000     0.029500000000     0.299300000000     0          
C6       C      0.205700000000     0.032400000000     0.254700000000     0          
C7       C      0.154300000000     0.038200000000     0.264800000000     0          
H4       H      0.143200000000     0.046800000000     0.297300000000     0          
C8       C      0.120000000000     0.031000000000     0.226200000000     0          
H5       H      0.085400000000     0.036200000000     0.231600000000     0          
C9       C      0.137900000000     0.015700000000     0.178400000000     0          
C10      C      0.190000000000     0.009900000000     0.171000000000     0          
H6       H      0.202800000000     0.999800000000     0.139500000000     0          
C11      C      0.366800000000     0.031200000000     0.399800000000     0          
C12      C      0.102200000000     0.006300000000     0.134800000000     0          
N1       N      0.292900000000     0.028500000000     0.277800000000     0          
N2       N      0.221400000000     0.019100000000     0.209700000000     0          
Fe1      Fe     0.303440000000     0.016190000000     0.199320000000     0          
Br3?     Br     0.393900000000     0.990800000000     0.201600000000     0          
Br4?     Br     0.306300000000     0.034400000000     0.105900000000     0          
O2       O      0.553100000000     0.053100000000     0.446900000000     0          
C13      C      0.640100000000     0.140100000000     0.359900000000     0          
C14      C      0.675100000000     0.175100000000     0.324900000000     0          
N3       N      0.617300000000     0.117300000000     0.382700000000     0          
Zr1      Zr     0.092650000000     0.511920000000     0.513850000000     0          
O1       O      0.037600000000     0.551100000000     0.567700000000     0          
O3       O      0.121090000000     0.588800000000     0.529300000000     0          
O4       O      0.053530000000     0.642600000000     0.528200000000     0          
O5       O      0.407610000000     0.876800000000     0.494600000000     0          
O6       O      0.355700000000     0.944810000000     0.510600000000     0          
C1       C      0.204500000000     0.755400000000     0.536600000000     0          
C2       C      0.155500000000     0.764300000000     0.548300000000     0          
H1       H      0.145500000000     0.797000000000     0.557600000000     0          
C3       C      0.119300000000     0.725500000000     0.546600000000     0          
H2       H      0.084800000000     0.732400000000     0.551300000000     0          
C4       C      0.136400000000     0.676400000000     0.537800000000     0          
C5       C      0.188700000000     0.668100000000     0.531600000000     0          
H3       H      0.200700000000     0.634800000000     0.529500000000     0          
C6       C      0.245300000000     0.794300000000     0.532400000000     0          
C7       C      0.235200000000     0.845700000000     0.538200000000     0          
H4       H      0.202700000000     0.856800000000     0.546800000000     0          
C8       C      0.273800000000     0.880000000000     0.531000000000     0          
H5       H      0.268400000000     0.914600000000     0.536200000000     0          
C9       C      0.321600000000     0.862100000000     0.515700000000     0          
C10      C      0.329000000000     0.810000000000     0.509900000000     0          
H6       H      0.360500000000     0.797200000000     0.499800000000     0          
C11      C      0.100200000000     0.633200000000     0.531200000000     0          
C12      C      0.365200000000     0.897800000000     0.506300000000     0          
N1       N      0.222200000000     0.707100000000     0.528500000000     0          
N2       N      0.290300000000     0.778600000000     0.519100000000     0          
Fe1      Fe     0.300680000000     0.696560000000     0.516190000000     0          
Br3?     Br     0.298400000000     0.606100000000     0.490800000000     0          
Br4?     Br     0.394100000000     0.693700000000     0.534400000000     0          
Zr1      Zr     0.407350000000     0.488080000000     0.013850000000     0          
O1       O      0.462400000000     0.448900000000     0.067700000000     0          
O3       O      0.378910000000     0.411200000000     0.029300000000     0          
O4       O      0.446470000000     0.357400000000     0.028200000000     0          
O5       O      0.092390000000     0.123200000000     0.994600000000     0          
O6       O      0.144300000000     0.055190000000     0.010600000000     0          
C1       C      0.295500000000     0.244600000000     0.036600000000     0          
C2       C      0.344500000000     0.235700000000     0.048300000000     0          
H1       H      0.354500000000     0.203000000000     0.057600000000     0          
C3       C      0.380700000000     0.274500000000     0.046600000000     0          
H2       H      0.415200000000     0.267600000000     0.051300000000     0          
C4       C      0.363600000000     0.323600000000     0.037800000000     0          
C5       C      0.311300000000     0.331900000000     0.031600000000     0          
H3       H      0.299300000000     0.365200000000     0.029500000000     0          
C6       C      0.254700000000     0.205700000000     0.032400000000     0          
C7       C      0.264800000000     0.154300000000     0.038200000000     0          
H4       H      0.297300000000     0.143200000000     0.046800000000     0          
C8       C      0.226200000000     0.120000000000     0.031000000000     0          
H5       H      0.231600000000     0.085400000000     0.036200000000     0          
C9       C      0.178400000000     0.137900000000     0.015700000000     0          
C10      C      0.171000000000     0.190000000000     0.009900000000     0          
H6       H      0.139500000000     0.202800000000     0.999800000000     0          
C11      C      0.399800000000     0.366800000000     0.031200000000     0          
C12      C      0.134800000000     0.102200000000     0.006300000000     0          
N1       N      0.277800000000     0.292900000000     0.028500000000     0          
N2       N      0.209700000000     0.221400000000     0.019100000000     0          
Fe1      Fe     0.199320000000     0.303440000000     0.016190000000     0          
Br3?     Br     0.201600000000     0.393900000000     0.990800000000     0          
Br4?     Br     0.105900000000     0.306300000000     0.034400000000     0          
Zr1      Zr     0.592650000000     0.988080000000     0.486150000000     0          
O1       O      0.537600000000     0.948900000000     0.432300000000     0          
O3       O      0.621090000000     0.911200000000     0.470700000000     0          
O4       O      0.553530000000     0.857400000000     0.471800000000     0          
O5       O      0.907610000000     0.623200000000     0.505400000000     0          
O6       O      0.855700000000     0.555190000000     0.489400000000     0          
C1       C      0.704500000000     0.744600000000     0.463400000000     0          
C2       C      0.655500000000     0.735700000000     0.451700000000     0          
H1       H      0.645500000000     0.703000000000     0.442400000000     0          
C3       C      0.619300000000     0.774500000000     0.453400000000     0          
H2       H      0.584800000000     0.767600000000     0.448700000000     0          
C4       C      0.636400000000     0.823600000000     0.462200000000     0          
C5       C      0.688700000000     0.831900000000     0.468400000000     0          
H3       H      0.700700000000     0.865200000000     0.470500000000     0          
C6       C      0.745300000000     0.705700000000     0.467600000000     0          
C7       C      0.735200000000     0.654300000000     0.461800000000     0          
H4       H      0.702700000000     0.643200000000     0.453200000000     0          
C8       C      0.773800000000     0.620000000000     0.469000000000     0          
H5       H      0.768400000000     0.585400000000     0.463800000000     0          
C9       C      0.821600000000     0.637900000000     0.484300000000     0          
C10      C      0.829000000000     0.690000000000     0.490100000000     0          
H6       H      0.860500000000     0.702800000000     0.500200000000     0          
C11      C      0.600200000000     0.866800000000     0.468800000000     0          
C12      C      0.865200000000     0.602200000000     0.493700000000     0          
N1       N      0.722200000000     0.792900000000     0.471500000000     0          
N2       N      0.790300000000     0.721400000000     0.480900000000     0          
Fe1      Fe     0.800680000000     0.803440000000     0.483810000000     0          
Br3?     Br     0.798400000000     0.893900000000     0.509200000000     0          
Br4?     Br     0.894100000000     0.806300000000     0.465600000000     0          
Zr1      Zr     0.907350000000     0.011920000000     0.986150000000     0          
O1       O      0.962400000000     0.051100000000     0.932300000000     0          
O3       O      0.878910000000     0.088800000000     0.970700000000     0          
O4       O      0.946470000000     0.142600000000     0.971800000000     0          
O5       O      0.592390000000     0.376800000000     0.005400000000     0          
O6       O      0.644300000000     0.444810000000     0.989400000000     0          
C1       C      0.795500000000     0.255400000000     0.963400000000     0          
C2       C      0.844500000000     0.264300000000     0.951700000000     0          
H1       H      0.854500000000     0.297000000000     0.942400000000     0          
C3       C      0.880700000000     0.225500000000     0.953400000000     0          
H2       H      0.915200000000     0.232400000000     0.948700000000     0          
C4       C      0.863600000000     0.176400000000     0.962200000000     0          
C5       C      0.811300000000     0.168100000000     0.968400000000     0          
H3       H      0.799300000000     0.134800000000     0.970500000000     0          
C6       C      0.754700000000     0.294300000000     0.967600000000     0          
C7       C      0.764800000000     0.345700000000     0.961800000000     0          
H4       H      0.797300000000     0.356800000000     0.953200000000     0          
C8       C      0.726200000000     0.380000000000     0.969000000000     0          
H5       H      0.731600000000     0.414600000000     0.963800000000     0          
C9       C      0.678400000000     0.362100000000     0.984300000000     0          
C10      C      0.671000000000     0.310000000000     0.990100000000     0          
H6       H      0.639500000000     0.297200000000     0.000200000000     0          
C11      C      0.899800000000     0.133200000000     0.968800000000     0          
C12      C      0.634800000000     0.397800000000     0.993700000000     0          
N1       N      0.777800000000     0.207100000000     0.971500000000     0          
N2       N      0.709700000000     0.278600000000     0.980900000000     0          
Fe1      Fe     0.699320000000     0.196560000000     0.983810000000     0          
Br3?     Br     0.701600000000     0.106100000000     0.009200000000     0          
Br4?     Br     0.605900000000     0.193700000000     0.965600000000     0          
Zr1      Zr     0.513850000000     0.092650000000     0.511920000000     0          
O1       O      0.567700000000     0.037600000000     0.551100000000     0          
O3       O      0.529300000000     0.121090000000     0.588800000000     0          
O4       O      0.528200000000     0.053530000000     0.642600000000     0          
O5       O      0.494600000000     0.407610000000     0.876800000000     0          
O6       O      0.510600000000     0.355700000000     0.944810000000     0          
C1       C      0.536600000000     0.204500000000     0.755400000000     0          
C2       C      0.548300000000     0.155500000000     0.764300000000     0          
H1       H      0.557600000000     0.145500000000     0.797000000000     0          
C3       C      0.546600000000     0.119300000000     0.725500000000     0          
H2       H      0.551300000000     0.084800000000     0.732400000000     0          
C4       C      0.537800000000     0.136400000000     0.676400000000     0          
C5       C      0.531600000000     0.188700000000     0.668100000000     0          
H3       H      0.529500000000     0.200700000000     0.634800000000     0          
C6       C      0.532400000000     0.245300000000     0.794300000000     0          
C7       C      0.538200000000     0.235200000000     0.845700000000     0          
H4       H      0.546800000000     0.202700000000     0.856800000000     0          
C8       C      0.531000000000     0.273800000000     0.880000000000     0          
H5       H      0.536200000000     0.268400000000     0.914600000000     0          
C9       C      0.515700000000     0.321600000000     0.862100000000     0          
C10      C      0.509900000000     0.329000000000     0.810000000000     0          
H6       H      0.499800000000     0.360500000000     0.797200000000     0          
C11      C      0.531200000000     0.100200000000     0.633200000000     0          
C12      C      0.506300000000     0.365200000000     0.897800000000     0          
N1       N      0.528500000000     0.222200000000     0.707100000000     0          
N2       N      0.519100000000     0.290300000000     0.778600000000     0          
Fe1      Fe     0.516190000000     0.300680000000     0.696560000000     0          
Br3?     Br     0.490800000000     0.298400000000     0.606100000000     0          
Br4?     Br     0.534400000000     0.394100000000     0.693700000000     0          
Zr1      Zr     0.013850000000     0.407350000000     0.488080000000     0          
O1       O      0.067700000000     0.462400000000     0.448900000000     0          
O3       O      0.029300000000     0.378910000000     0.411200000000     0          
O4       O      0.028200000000     0.446470000000     0.357400000000     0          
O5       O      0.994600000000     0.092390000000     0.123200000000     0          
O6       O      0.010600000000     0.144300000000     0.055190000000     0          
C1       C      0.036600000000     0.295500000000     0.244600000000     0          
C2       C      0.048300000000     0.344500000000     0.235700000000     0          
H1       H      0.057600000000     0.354500000000     0.203000000000     0          
C3       C      0.046600000000     0.380700000000     0.274500000000     0          
H2       H      0.051300000000     0.415200000000     0.267600000000     0          
C4       C      0.037800000000     0.363600000000     0.323600000000     0          
C5       C      0.031600000000     0.311300000000     0.331900000000     0          
H3       H      0.029500000000     0.299300000000     0.365200000000     0          
C6       C      0.032400000000     0.254700000000     0.205700000000     0          
C7       C      0.038200000000     0.264800000000     0.154300000000     0          
H4       H      0.046800000000     0.297300000000     0.143200000000     0          
C8       C      0.031000000000     0.226200000000     0.120000000000     0          
H5       H      0.036200000000     0.231600000000     0.085400000000     0          
C9       C      0.015700000000     0.178400000000     0.137900000000     0          
C10      C      0.009900000000     0.171000000000     0.190000000000     0          
H6       H      0.999800000000     0.139500000000     0.202800000000     0          
C11      C      0.031200000000     0.399800000000     0.366800000000     0          
C12      C      0.006300000000     0.134800000000     0.102200000000     0          
N1       N      0.028500000000     0.277800000000     0.292900000000     0          
N2       N      0.019100000000     0.209700000000     0.221400000000     0          
Fe1      Fe     0.016190000000     0.199320000000     0.303440000000     0          
Br3?     Br     0.990800000000     0.201600000000     0.393900000000     0          
Br4?     Br     0.034400000000     0.105900000000     0.306300000000     0          
Zr1      Zr     0.486150000000     0.592650000000     0.988080000000     0          
O1       O      0.432300000000     0.537600000000     0.948900000000     0          
O3       O      0.470700000000     0.621090000000     0.911200000000     0          
O4       O      0.471800000000     0.553530000000     0.857400000000     0          
O5       O      0.505400000000     0.907610000000     0.623200000000     0          
O6       O      0.489400000000     0.855700000000     0.555190000000     0          
C1       C      0.463400000000     0.704500000000     0.744600000000     0          
C2       C      0.451700000000     0.655500000000     0.735700000000     0          
H1       H      0.442400000000     0.645500000000     0.703000000000     0          
C3       C      0.453400000000     0.619300000000     0.774500000000     0          
H2       H      0.448700000000     0.584800000000     0.767600000000     0          
C4       C      0.462200000000     0.636400000000     0.823600000000     0          
C5       C      0.468400000000     0.688700000000     0.831900000000     0          
H3       H      0.470500000000     0.700700000000     0.865200000000     0          
C6       C      0.467600000000     0.745300000000     0.705700000000     0          
C7       C      0.461800000000     0.735200000000     0.654300000000     0          
H4       H      0.453200000000     0.702700000000     0.643200000000     0          
C8       C      0.469000000000     0.773800000000     0.620000000000     0          
H5       H      0.463800000000     0.768400000000     0.585400000000     0          
C9       C      0.484300000000     0.821600000000     0.637900000000     0          
C10      C      0.490100000000     0.829000000000     0.690000000000     0          
H6       H      0.500200000000     0.860500000000     0.702800000000     0          
C11      C      0.468800000000     0.600200000000     0.866800000000     0          
C12      C      0.493700000000     0.865200000000     0.602200000000     0          
N1       N      0.471500000000     0.722200000000     0.792900000000     0          
N2       N      0.480900000000     0.790300000000     0.721400000000     0          
Fe1      Fe     0.483810000000     0.800680000000     0.803440000000     0          
Br3?     Br     0.509200000000     0.798400000000     0.893900000000     0          
Br4?     Br     0.465600000000     0.894100000000     0.806300000000     0          
Zr1      Zr     0.986150000000     0.907350000000     0.011920000000     0          
O1       O      0.932300000000     0.962400000000     0.051100000000     0          
O3       O      0.970700000000     0.878910000000     0.088800000000     0          
O4       O      0.971800000000     0.946470000000     0.142600000000     0          
O5       O      0.005400000000     0.592390000000     0.376800000000     0          
O6       O      0.989400000000     0.644300000000     0.444810000000     0          
C1       C      0.963400000000     0.795500000000     0.255400000000     0          
C2       C      0.951700000000     0.844500000000     0.264300000000     0          
H1       H      0.942400000000     0.854500000000     0.297000000000     0          
C3       C      0.953400000000     0.880700000000     0.225500000000     0          
H2       H      0.948700000000     0.915200000000     0.232400000000     0          
C4       C      0.962200000000     0.863600000000     0.176400000000     0          
C5       C      0.968400000000     0.811300000000     0.168100000000     0          
H3       H      0.970500000000     0.799300000000     0.134800000000     0          
C6       C      0.967600000000     0.754700000000     0.294300000000     0          
C7       C      0.961800000000     0.764800000000     0.345700000000     0          
H4       H      0.953200000000     0.797300000000     0.356800000000     0          
C8       C      0.969000000000     0.726200000000     0.380000000000     0          
H5       H      0.963800000000     0.731600000000     0.414600000000     0          
C9       C      0.984300000000     0.678400000000     0.362100000000     0          
C10      C      0.990100000000     0.671000000000     0.310000000000     0          
H6       H      0.000200000000     0.639500000000     0.297200000000     0          
C11      C      0.968800000000     0.899800000000     0.133200000000     0          
C12      C      0.993700000000     0.634800000000     0.397800000000     0          
N1       N      0.971500000000     0.777800000000     0.207100000000     0          
N2       N      0.980900000000     0.709700000000     0.278600000000     0          
Fe1      Fe     0.983810000000     0.699320000000     0.196560000000     0          
Br3?     Br     0.009200000000     0.701600000000     0.106100000000     0          
Br4?     Br     0.965600000000     0.605900000000     0.193700000000     0          
Zr1      Zr     0.488080000000     0.486150000000     0.907350000000     0          
O1       O      0.448900000000     0.432300000000     0.962400000000     0          
O3       O      0.411200000000     0.470700000000     0.878910000000     0          
O4       O      0.357400000000     0.471800000000     0.946470000000     0          
O5       O      0.123200000000     0.505400000000     0.592390000000     0          
O6       O      0.055190000000     0.489400000000     0.644300000000     0          
C1       C      0.244600000000     0.463400000000     0.795500000000     0          
C2       C      0.235700000000     0.451700000000     0.844500000000     0          
H1       H      0.203000000000     0.442400000000     0.854500000000     0          
C3       C      0.274500000000     0.453400000000     0.880700000000     0          
H2       H      0.267600000000     0.448700000000     0.915200000000     0          
C4       C      0.323600000000     0.462200000000     0.863600000000     0          
C5       C      0.331900000000     0.468400000000     0.811300000000     0          
H3       H      0.365200000000     0.470500000000     0.799300000000     0          
C6       C      0.205700000000     0.467600000000     0.754700000000     0          
C7       C      0.154300000000     0.461800000000     0.764800000000     0          
H4       H      0.143200000000     0.453200000000     0.797300000000     0          
C8       C      0.120000000000     0.469000000000     0.726200000000     0          
H5       H      0.085400000000     0.463800000000     0.731600000000     0          
C9       C      0.137900000000     0.484300000000     0.678400000000     0          
C10      C      0.190000000000     0.490100000000     0.671000000000     0          
H6       H      0.202800000000     0.500200000000     0.639500000000     0          
C11      C      0.366800000000     0.468800000000     0.899800000000     0          
C12      C      0.102200000000     0.493700000000     0.634800000000     0          
N1       N      0.292900000000     0.471500000000     0.777800000000     0          
N2       N      0.221400000000     0.480900000000     0.709700000000     0          
Fe1      Fe     0.303440000000     0.483810000000     0.699320000000     0          
Br3?     Br     0.393900000000     0.509200000000     0.701600000000     0          
Br4?     Br     0.306300000000     0.465600000000     0.605900000000     0          
O2       O      0.553100000000     0.446900000000     0.946900000000     0          
C13      C      0.640100000000     0.359900000000     0.859900000000     0          
C14      C      0.675100000000     0.324900000000     0.824900000000     0          
N3       N      0.617300000000     0.382700000000     0.882700000000     0          
Zr1      Zr     0.011920000000     0.513850000000     0.407350000000     0          
O1       O      0.051100000000     0.567700000000     0.462400000000     0          
O3       O      0.088800000000     0.529300000000     0.378910000000     0          
O4       O      0.142600000000     0.528200000000     0.446470000000     0          
O5       O      0.376800000000     0.494600000000     0.092390000000     0          
O6       O      0.444810000000     0.510600000000     0.144300000000     0          
C1       C      0.255400000000     0.536600000000     0.295500000000     0          
C2       C      0.264300000000     0.548300000000     0.344500000000     0          
H1       H      0.297000000000     0.557600000000     0.354500000000     0          
C3       C      0.225500000000     0.546600000000     0.380700000000     0          
H2       H      0.232400000000     0.551300000000     0.415200000000     0          
C4       C      0.176400000000     0.537800000000     0.363600000000     0          
C5       C      0.168100000000     0.531600000000     0.311300000000     0          
H3       H      0.134800000000     0.529500000000     0.299300000000     0          
C6       C      0.294300000000     0.532400000000     0.254700000000     0          
C7       C      0.345700000000     0.538200000000     0.264800000000     0          
H4       H      0.356800000000     0.546800000000     0.297300000000     0          
C8       C      0.380000000000     0.531000000000     0.226200000000     0          
H5       H      0.414600000000     0.536200000000     0.231600000000     0          
C9       C      0.362100000000     0.515700000000     0.178400000000     0          
C10      C      0.310000000000     0.509900000000     0.171000000000     0          
H6       H      0.297200000000     0.499800000000     0.139500000000     0          
C11      C      0.133200000000     0.531200000000     0.399800000000     0          
C12      C      0.397800000000     0.506300000000     0.134800000000     0          
N1       N      0.207100000000     0.528500000000     0.277800000000     0          
N2       N      0.278600000000     0.519100000000     0.209700000000     0          
Fe1      Fe     0.196560000000     0.516190000000     0.199320000000     0          
Br3?     Br     0.106100000000     0.490800000000     0.201600000000     0          
Br4?     Br     0.193700000000     0.534400000000     0.105900000000     0          
O2       O      0.946900000000     0.553100000000     0.446900000000     0          
C13      C      0.859900000000     0.640100000000     0.359900000000     0          
C14      C      0.824900000000     0.675100000000     0.324900000000     0          
N3       N      0.882700000000     0.617300000000     0.382700000000     0          
Zr1      Zr     0.988080000000     0.013850000000     0.092650000000     0          
O1       O      0.948900000000     0.067700000000     0.037600000000     0          
O3       O      0.911200000000     0.029300000000     0.121090000000     0          
O4       O      0.857400000000     0.028200000000     0.053530000000     0          
O5       O      0.623200000000     0.994600000000     0.407610000000     0          
O6       O      0.555190000000     0.010600000000     0.355700000000     0          
C1       C      0.744600000000     0.036600000000     0.204500000000     0          
C2       C      0.735700000000     0.048300000000     0.155500000000     0          
H1       H      0.703000000000     0.057600000000     0.145500000000     0          
C3       C      0.774500000000     0.046600000000     0.119300000000     0          
H2       H      0.767600000000     0.051300000000     0.084800000000     0          
C4       C      0.823600000000     0.037800000000     0.136400000000     0          
C5       C      0.831900000000     0.031600000000     0.188700000000     0          
H3       H      0.865200000000     0.029500000000     0.200700000000     0          
C6       C      0.705700000000     0.032400000000     0.245300000000     0          
C7       C      0.654300000000     0.038200000000     0.235200000000     0          
H4       H      0.643200000000     0.046800000000     0.202700000000     0          
C8       C      0.620000000000     0.031000000000     0.273800000000     0          
H5       H      0.585400000000     0.036200000000     0.268400000000     0          
C9       C      0.637900000000     0.015700000000     0.321600000000     0          
C10      C      0.690000000000     0.009900000000     0.329000000000     0          
H6       H      0.702800000000     0.999800000000     0.360500000000     0          
C11      C      0.866800000000     0.031200000000     0.100200000000     0          
C12      C      0.602200000000     0.006300000000     0.365200000000     0          
N1       N      0.792900000000     0.028500000000     0.222200000000     0          
N2       N      0.721400000000     0.019100000000     0.290300000000     0          
Fe1      Fe     0.803440000000     0.016190000000     0.300680000000     0          
Br3?     Br     0.893900000000     0.990800000000     0.298400000000     0          
Br4?     Br     0.806300000000     0.034400000000     0.394100000000     0          
O2       O      0.053100000000     0.053100000000     0.053100000000     0          
C13      C      0.140100000000     0.140100000000     0.140100000000     0          
C14      C      0.175100000000     0.175100000000     0.175100000000     0          
N3       N      0.117300000000     0.117300000000     0.117300000000     0          
Zr1      Zr     0.511920000000     0.986150000000     0.592650000000     0          
O1       O      0.551100000000     0.932300000000     0.537600000000     0          
O3       O      0.588800000000     0.970700000000     0.621090000000     0          
O4       O      0.642600000000     0.971800000000     0.553530000000     0          
O5       O      0.876800000000     0.005400000000     0.907610000000     0          
O6       O      0.944810000000     0.989400000000     0.855700000000     0          
C1       C      0.755400000000     0.963400000000     0.704500000000     0          
C2       C      0.764300000000     0.951700000000     0.655500000000     0          
H1       H      0.797000000000     0.942400000000     0.645500000000     0          
C3       C      0.725500000000     0.953400000000     0.619300000000     0          
H2       H      0.732400000000     0.948700000000     0.584800000000     0          
C4       C      0.676400000000     0.962200000000     0.636400000000     0          
C5       C      0.668100000000     0.968400000000     0.688700000000     0          
H3       H      0.634800000000     0.970500000000     0.700700000000     0          
C6       C      0.794300000000     0.967600000000     0.745300000000     0          
C7       C      0.845700000000     0.961800000000     0.735200000000     0          
H4       H      0.856800000000     0.953200000000     0.702700000000     0          
C8       C      0.880000000000     0.969000000000     0.773800000000     0          
H5       H      0.914600000000     0.963800000000     0.768400000000     0          
C9       C      0.862100000000     0.984300000000     0.821600000000     0          
C10      C      0.810000000000     0.990100000000     0.829000000000     0          
H6       H      0.797200000000     0.000200000000     0.860500000000     0          
C11      C      0.633200000000     0.968800000000     0.600200000000     0          
C12      C      0.897800000000     0.993700000000     0.865200000000     0          
N1       N      0.707100000000     0.971500000000     0.722200000000     0          
N2       N      0.778600000000     0.980900000000     0.790300000000     0          
Fe1      Fe     0.696560000000     0.983810000000     0.800680000000     0          
Br3?     Br     0.606100000000     0.009200000000     0.798400000000     0          
Br4?     Br     0.693700000000     0.965600000000     0.894100000000     0          
O2       O      0.446900000000     0.946900000000     0.553100000000     0          
C13      C      0.359900000000     0.859900000000     0.640100000000     0          
C14      C      0.324900000000     0.824900000000     0.675100000000     0          
N3       N      0.382700000000     0.882700000000     0.617300000000     0          
Zr1      Zr     0.907350000000     0.488080000000     0.486150000000     0          
O1       O      0.962400000000     0.448900000000     0.432300000000     0          
O3       O      0.878910000000     0.411200000000     0.470700000000     0          
O4       O      0.946470000000     0.357400000000     0.471800000000     0          
O5       O      0.592390000000     0.123200000000     0.505400000000     0          
O6       O      0.644300000000     0.055190000000     0.489400000000     0          
C1       C      0.795500000000     0.244600000000     0.463400000000     0          
C2       C      0.844500000000     0.235700000000     0.451700000000     0          
H1       H      0.854500000000     0.203000000000     0.442400000000     0          
C3       C      0.880700000000     0.274500000000     0.453400000000     0          
H2       H      0.915200000000     0.267600000000     0.448700000000     0          
C4       C      0.863600000000     0.323600000000     0.462200000000     0          
C5       C      0.811300000000     0.331900000000     0.468400000000     0          
H3       H      0.799300000000     0.365200000000     0.470500000000     0          
C6       C      0.754700000000     0.205700000000     0.467600000000     0          
C7       C      0.764800000000     0.154300000000     0.461800000000     0          
H4       H      0.797300000000     0.143200000000     0.453200000000     0          
C8       C      0.726200000000     0.120000000000     0.469000000000     0          
H5       H      0.731600000000     0.085400000000     0.463800000000     0          
C9       C      0.678400000000     0.137900000000     0.484300000000     0          
C10      C      0.671000000000     0.190000000000     0.490100000000     0          
H6       H      0.639500000000     0.202800000000     0.500200000000     0          
C11      C      0.899800000000     0.366800000000     0.468800000000     0          
C12      C      0.634800000000     0.102200000000     0.493700000000     0          
N1       N      0.777800000000     0.292900000000     0.471500000000     0          
N2       N      0.709700000000     0.221400000000     0.480900000000     0          
Fe1      Fe     0.699320000000     0.303440000000     0.483810000000     0          
Br3?     Br     0.701600000000     0.393900000000     0.509200000000     0          
Br4?     Br     0.605900000000     0.306300000000     0.465600000000     0          
Zr1      Zr     0.592650000000     0.511920000000     0.986150000000     0          
O1       O      0.537600000000     0.551100000000     0.932300000000     0          
O3       O      0.621090000000     0.588800000000     0.970700000000     0          
O4       O      0.553530000000     0.642600000000     0.971800000000     0          
O5       O      0.907610000000     0.876800000000     0.005400000000     0          
O6       O      0.855700000000     0.944810000000     0.989400000000     0          
C1       C      0.704500000000     0.755400000000     0.963400000000     0          
C2       C      0.655500000000     0.764300000000     0.951700000000     0          
H1       H      0.645500000000     0.797000000000     0.942400000000     0          
C3       C      0.619300000000     0.725500000000     0.953400000000     0          
H2       H      0.584800000000     0.732400000000     0.948700000000     0          
C4       C      0.636400000000     0.676400000000     0.962200000000     0          
C5       C      0.688700000000     0.668100000000     0.968400000000     0          
H3       H      0.700700000000     0.634800000000     0.970500000000     0          
C6       C      0.745300000000     0.794300000000     0.967600000000     0          
C7       C      0.735200000000     0.845700000000     0.961800000000     0          
H4       H      0.702700000000     0.856800000000     0.953200000000     0          
C8       C      0.773800000000     0.880000000000     0.969000000000     0          
H5       H      0.768400000000     0.914600000000     0.963800000000     0          
C9       C      0.821600000000     0.862100000000     0.984300000000     0          
C10      C      0.829000000000     0.810000000000     0.990100000000     0          
H6       H      0.860500000000     0.797200000000     0.000200000000     0          
C11      C      0.600200000000     0.633200000000     0.968800000000     0          
C12      C      0.865200000000     0.897800000000     0.993700000000     0          
N1       N      0.722200000000     0.707100000000     0.971500000000     0          
N2       N      0.790300000000     0.778600000000     0.980900000000     0          
Fe1      Fe     0.800680000000     0.696560000000     0.983810000000     0          
Br3?     Br     0.798400000000     0.606100000000     0.009200000000     0          
Br4?     Br     0.894100000000     0.693700000000     0.965600000000     0          
Zr1      Zr     0.407350000000     0.011920000000     0.513850000000     0          
O1       O      0.462400000000     0.051100000000     0.567700000000     0          
O3       O      0.378910000000     0.088800000000     0.529300000000     0          
O4       O      0.446470000000     0.142600000000     0.528200000000     0          
O5       O      0.092390000000     0.376800000000     0.494600000000     0          
O6       O      0.144300000000     0.444810000000     0.510600000000     0          
C1       C      0.295500000000     0.255400000000     0.536600000000     0          
C2       C      0.344500000000     0.264300000000     0.548300000000     0          
H1       H      0.354500000000     0.297000000000     0.557600000000     0          
C3       C      0.380700000000     0.225500000000     0.546600000000     0          
H2       H      0.415200000000     0.232400000000     0.551300000000     0          
C4       C      0.363600000000     0.176400000000     0.537800000000     0          
C5       C      0.311300000000     0.168100000000     0.531600000000     0          
H3       H      0.299300000000     0.134800000000     0.529500000000     0          
C6       C      0.254700000000     0.294300000000     0.532400000000     0          
C7       C      0.264800000000     0.345700000000     0.538200000000     0          
H4       H      0.297300000000     0.356800000000     0.546800000000     0          
C8       C      0.226200000000     0.380000000000     0.531000000000     0          
H5       H      0.231600000000     0.414600000000     0.536200000000     0          
C9       C      0.178400000000     0.362100000000     0.515700000000     0          
C10      C      0.171000000000     0.310000000000     0.509900000000     0          
H6       H      0.139500000000     0.297200000000     0.499800000000     0          
C11      C      0.399800000000     0.133200000000     0.531200000000     0          
C12      C      0.134800000000     0.397800000000     0.506300000000     0          
N1       N      0.277800000000     0.207100000000     0.528500000000     0          
N2       N      0.209700000000     0.278600000000     0.519100000000     0          
Fe1      Fe     0.199320000000     0.196560000000     0.516190000000     0          
Br3?     Br     0.201600000000     0.106100000000     0.490800000000     0          
Br4?     Br     0.105900000000     0.193700000000     0.534400000000     0          
Zr1      Zr     0.092650000000     0.988080000000     0.013850000000     0          
O1       O      0.037600000000     0.948900000000     0.067700000000     0          
O3       O      0.121090000000     0.911200000000     0.029300000000     0          
O4       O      0.053530000000     0.857400000000     0.028200000000     0          
O5       O      0.407610000000     0.623200000000     0.994600000000     0          
O6       O      0.355700000000     0.555190000000     0.010600000000     0          
C1       C      0.204500000000     0.744600000000     0.036600000000     0          
C2       C      0.155500000000     0.735700000000     0.048300000000     0          
H1       H      0.145500000000     0.703000000000     0.057600000000     0          
C3       C      0.119300000000     0.774500000000     0.046600000000     0          
H2       H      0.084800000000     0.767600000000     0.051300000000     0          
C4       C      0.136400000000     0.823600000000     0.037800000000     0          
C5       C      0.188700000000     0.831900000000     0.031600000000     0          
H3       H      0.200700000000     0.865200000000     0.029500000000     0          
C6       C      0.245300000000     0.705700000000     0.032400000000     0          
C7       C      0.235200000000     0.654300000000     0.038200000000     0          
H4       H      0.202700000000     0.643200000000     0.046800000000     0          
C8       C      0.273800000000     0.620000000000     0.031000000000     0          
H5       H      0.268400000000     0.585400000000     0.036200000000     0          
C9       C      0.321600000000     0.637900000000     0.015700000000     0          
C10      C      0.329000000000     0.690000000000     0.009900000000     0          
H6       H      0.360500000000     0.702800000000     0.999800000000     0          
C11      C      0.100200000000     0.866800000000     0.031200000000     0          
C12      C      0.365200000000     0.602200000000     0.006300000000     0          
N1       N      0.222200000000     0.792900000000     0.028500000000     0          
N2       N      0.290300000000     0.721400000000     0.019100000000     0          
Fe1      Fe     0.300680000000     0.803440000000     0.016190000000     0          
Br3?     Br     0.298400000000     0.893900000000     0.990800000000     0          
Br4?     Br     0.394100000000     0.806300000000     0.034400000000     0          
Zr1      Zr     0.486150000000     0.907350000000     0.488080000000     0          
O1       O      0.432300000000     0.962400000000     0.448900000000     0          
O3       O      0.470700000000     0.878910000000     0.411200000000     0          
O4       O      0.471800000000     0.946470000000     0.357400000000     0          
O5       O      0.505400000000     0.592390000000     0.123200000000     0          
O6       O      0.489400000000     0.644300000000     0.055190000000     0          
C1       C      0.463400000000     0.795500000000     0.244600000000     0          
C2       C      0.451700000000     0.844500000000     0.235700000000     0          
H1       H      0.442400000000     0.854500000000     0.203000000000     0          
C3       C      0.453400000000     0.880700000000     0.274500000000     0          
H2       H      0.448700000000     0.915200000000     0.267600000000     0          
C4       C      0.462200000000     0.863600000000     0.323600000000     0          
C5       C      0.468400000000     0.811300000000     0.331900000000     0          
H3       H      0.470500000000     0.799300000000     0.365200000000     0          
C6       C      0.467600000000     0.754700000000     0.205700000000     0          
C7       C      0.461800000000     0.764800000000     0.154300000000     0          
H4       H      0.453200000000     0.797300000000     0.143200000000     0          
C8       C      0.469000000000     0.726200000000     0.120000000000     0          
H5       H      0.463800000000     0.731600000000     0.085400000000     0          
C9       C      0.484300000000     0.678400000000     0.137900000000     0          
C10      C      0.490100000000     0.671000000000     0.190000000000     0          
H6       H      0.500200000000     0.639500000000     0.202800000000     0          
C11      C      0.468800000000     0.899800000000     0.366800000000     0          
C12      C      0.493700000000     0.634800000000     0.102200000000     0          
N1       N      0.471500000000     0.777800000000     0.292900000000     0          
N2       N      0.480900000000     0.709700000000     0.221400000000     0          
Fe1      Fe     0.483810000000     0.699320000000     0.303440000000     0          
Br3?     Br     0.509200000000     0.701600000000     0.393900000000     0          
Br4?     Br     0.465600000000     0.605900000000     0.306300000000     0          
Zr1      Zr     0.986150000000     0.592650000000     0.511920000000     0          
O1       O      0.932300000000     0.537600000000     0.551100000000     0          
O3       O      0.970700000000     0.621090000000     0.588800000000     0          
O4       O      0.971800000000     0.553530000000     0.642600000000     0          
O5       O      0.005400000000     0.907610000000     0.876800000000     0          
O6       O      0.989400000000     0.855700000000     0.944810000000     0          
C1       C      0.963400000000     0.704500000000     0.755400000000     0          
C2       C      0.951700000000     0.655500000000     0.764300000000     0          
H1       H      0.942400000000     0.645500000000     0.797000000000     0          
C3       C      0.953400000000     0.619300000000     0.725500000000     0          
H2       H      0.948700000000     0.584800000000     0.732400000000     0          
C4       C      0.962200000000     0.636400000000     0.676400000000     0          
C5       C      0.968400000000     0.688700000000     0.668100000000     0          
H3       H      0.970500000000     0.700700000000     0.634800000000     0          
C6       C      0.967600000000     0.745300000000     0.794300000000     0          
C7       C      0.961800000000     0.735200000000     0.845700000000     0          
H4       H      0.953200000000     0.702700000000     0.856800000000     0          
C8       C      0.969000000000     0.773800000000     0.880000000000     0          
H5       H      0.963800000000     0.768400000000     0.914600000000     0          
C9       C      0.984300000000     0.821600000000     0.862100000000     0          
C10      C      0.990100000000     0.829000000000     0.810000000000     0          
H6       H      0.000200000000     0.860500000000     0.797200000000     0          
C11      C      0.968800000000     0.600200000000     0.633200000000     0          
C12      C      0.993700000000     0.865200000000     0.897800000000     0          
N1       N      0.971500000000     0.722200000000     0.707100000000     0          
N2       N      0.980900000000     0.790300000000     0.778600000000     0          
Fe1      Fe     0.983810000000     0.800680000000     0.696560000000     0          
Br3?     Br     0.009200000000     0.798400000000     0.606100000000     0          
Br4?     Br     0.965600000000     0.894100000000     0.693700000000     0          
Zr1      Zr     0.513850000000     0.407350000000     0.011920000000     0          
O1       O      0.567700000000     0.462400000000     0.051100000000     0          
O3       O      0.529300000000     0.378910000000     0.088800000000     0          
O4       O      0.528200000000     0.446470000000     0.142600000000     0          
O5       O      0.494600000000     0.092390000000     0.376800000000     0          
O6       O      0.510600000000     0.144300000000     0.444810000000     0          
C1       C      0.536600000000     0.295500000000     0.255400000000     0          
C2       C      0.548300000000     0.344500000000     0.264300000000     0          
H1       H      0.557600000000     0.354500000000     0.297000000000     0          
C3       C      0.546600000000     0.380700000000     0.225500000000     0          
H2       H      0.551300000000     0.415200000000     0.232400000000     0          
C4       C      0.537800000000     0.363600000000     0.176400000000     0          
C5       C      0.531600000000     0.311300000000     0.168100000000     0          
H3       H      0.529500000000     0.299300000000     0.134800000000     0          
C6       C      0.532400000000     0.254700000000     0.294300000000     0          
C7       C      0.538200000000     0.264800000000     0.345700000000     0          
H4       H      0.546800000000     0.297300000000     0.356800000000     0          
C8       C      0.531000000000     0.226200000000     0.380000000000     0          
H5       H      0.536200000000     0.231600000000     0.414600000000     0          
C9       C      0.515700000000     0.178400000000     0.362100000000     0          
C10      C      0.509900000000     0.171000000000     0.310000000000     0          
H6       H      0.499800000000     0.139500000000     0.297200000000     0          
C11      C      0.531200000000     0.399800000000     0.133200000000     0          
C12      C      0.506300000000     0.134800000000     0.397800000000     0          
N1       N      0.528500000000     0.277800000000     0.207100000000     0          
N2       N      0.519100000000     0.209700000000     0.278600000000     0          
Fe1      Fe     0.516190000000     0.199320000000     0.196560000000     0          
Br3?     Br     0.490800000000     0.201600000000     0.106100000000     0          
Br4?     Br     0.534400000000     0.105900000000     0.193700000000     0          
Zr1      Zr     0.013850000000     0.092650000000     0.988080000000     0          
O1       O      0.067700000000     0.037600000000     0.948900000000     0          
O3       O      0.029300000000     0.121090000000     0.911200000000     0          
O4       O      0.028200000000     0.053530000000     0.857400000000     0          
O5       O      0.994600000000     0.407610000000     0.623200000000     0          
O6       O      0.010600000000     0.355700000000     0.555190000000     0          
C1       C      0.036600000000     0.204500000000     0.744600000000     0          
C2       C      0.048300000000     0.155500000000     0.735700000000     0          
H1       H      0.057600000000     0.145500000000     0.703000000000     0          
C3       C      0.046600000000     0.119300000000     0.774500000000     0          
H2       H      0.051300000000     0.084800000000     0.767600000000     0          
C4       C      0.037800000000     0.136400000000     0.823600000000     0          
C5       C      0.031600000000     0.188700000000     0.831900000000     0          
H3       H      0.029500000000     0.200700000000     0.865200000000     0          
C6       C      0.032400000000     0.245300000000     0.705700000000     0          
C7       C      0.038200000000     0.235200000000     0.654300000000     0          
H4       H      0.046800000000     0.202700000000     0.643200000000     0          
C8       C      0.031000000000     0.273800000000     0.620000000000     0          
H5       H      0.036200000000     0.268400000000     0.585400000000     0          
C9       C      0.015700000000     0.321600000000     0.637900000000     0          
C10      C      0.009900000000     0.329000000000     0.690000000000     0          
H6       H      0.999800000000     0.360500000000     0.702800000000     0          
C11      C      0.031200000000     0.100200000000     0.866800000000     0          
C12      C      0.006300000000     0.365200000000     0.602200000000     0          
N1       N      0.028500000000     0.222200000000     0.792900000000     0          
N2       N      0.019100000000     0.290300000000     0.721400000000     0          
Fe1      Fe     0.016190000000     0.300680000000     0.803440000000     0          
Br3?     Br     0.990800000000     0.298400000000     0.893900000000     0          
Br4?     Br     0.034400000000     0.394100000000     0.806300000000     0          


