data_RAZVIA

_audit_creation_method RASPA-1.0
_audit_creation_date 2020-11-23
_audit_author_name 'Rocio Bueno-Perez'

_cell_length_a    29.4701
_cell_length_b    29.47
_cell_length_c    29.47
_cell_angle_alpha 90
_cell_angle_beta  90
_cell_angle_gamma 90
_cell_volume      25594.2

_symmetry_cell_setting          triclinic
_symmetry_space_group_name_Hall 'P 1'
_symmetry_space_group_name_H-M  'P 1'
_symmetry_Int_Tables_number     1

_symmetry_equiv_pos_as_xyz 'x,y,z'

loop_
_atom_site_label
_atom_site_type_symbol
_atom_site_fract_x
_atom_site_fract_y
_atom_site_fract_z
_atom_site_charge
Zr1      Zr     0.000000000000     0.000000000000     0.083730000000     0          
Zr2      Zr     0.000000000000     0.500000000000     0.583730000000     0          
Zr3      Zr     0.500000000000     0.000000000000     0.583730000000     0          
Zr4      Zr     0.500000000000     0.500000000000     0.083730000000     0          
Zr5      Zr     0.000000000000     0.000000000000     0.916270000000     0          
Zr6      Zr     0.000000000000     0.500000000000     0.416270000000     0          
Zr7      Zr     0.500000000000     0.000000000000     0.416270000000     0          
Zr8      Zr     0.500000000000     0.500000000000     0.916270000000     0          
Zr9      Zr     0.083730000000     0.000000000000     0.000000000000     0          
Zr10     Zr     0.083730000000     0.500000000000     0.500000000000     0          
Zr11     Zr     0.583730000000     0.000000000000     0.500000000000     0          
Zr12     Zr     0.583730000000     0.500000000000     0.000000000000     0          
Zr13     Zr     0.916270000000     0.000000000000     0.000000000000     0          
Zr14     Zr     0.916270000000     0.500000000000     0.500000000000     0          
Zr15     Zr     0.416270000000     0.000000000000     0.500000000000     0          
Zr16     Zr     0.416270000000     0.500000000000     0.000000000000     0          
Zr17     Zr     0.000000000000     0.083730000000     0.000000000000     0          
Zr18     Zr     0.000000000000     0.583730000000     0.500000000000     0          
Zr19     Zr     0.500000000000     0.083730000000     0.500000000000     0          
Zr20     Zr     0.500000000000     0.583730000000     0.000000000000     0          
Zr21     Zr     0.000000000000     0.916270000000     0.000000000000     0          
Zr22     Zr     0.000000000000     0.416270000000     0.500000000000     0          
Zr23     Zr     0.500000000000     0.916270000000     0.500000000000     0          
Zr24     Zr     0.500000000000     0.416270000000     0.000000000000     0          
O25      O      0.958930000000     0.958930000000     0.041070000000     0          
O26      O      0.958930000000     0.458930000000     0.541070000000     0          
O27      O      0.458930000000     0.958930000000     0.541070000000     0          
O28      O      0.458930000000     0.458930000000     0.041070000000     0          
O29      O      0.041070000000     0.041070000000     0.041070000000     0          
O30      O      0.041070000000     0.541070000000     0.541070000000     0          
O31      O      0.541070000000     0.041070000000     0.541070000000     0          
O32      O      0.541070000000     0.541070000000     0.041070000000     0          
O33      O      0.041070000000     0.958930000000     0.958930000000     0          
O34      O      0.041070000000     0.458930000000     0.458930000000     0          
O35      O      0.541070000000     0.958930000000     0.458930000000     0          
O36      O      0.541070000000     0.458930000000     0.958930000000     0          
O37      O      0.958930000000     0.041070000000     0.958930000000     0          
O38      O      0.958930000000     0.541070000000     0.458930000000     0          
O39      O      0.458930000000     0.041070000000     0.458930000000     0          
O40      O      0.458930000000     0.541070000000     0.958930000000     0          
O41      O      0.958930000000     0.958930000000     0.958930000000     0          
O42      O      0.958930000000     0.458930000000     0.458930000000     0          
O43      O      0.458930000000     0.958930000000     0.458930000000     0          
O44      O      0.458930000000     0.458930000000     0.958930000000     0          
O45      O      0.041070000000     0.041070000000     0.958930000000     0          
O46      O      0.041070000000     0.541070000000     0.458930000000     0          
O47      O      0.541070000000     0.041070000000     0.458930000000     0          
O48      O      0.541070000000     0.541070000000     0.958930000000     0          
O49      O      0.958930000000     0.041070000000     0.041070000000     0          
O50      O      0.958930000000     0.541070000000     0.541070000000     0          
O51      O      0.458930000000     0.041070000000     0.541070000000     0          
O52      O      0.458930000000     0.541070000000     0.041070000000     0          
O53      O      0.041070000000     0.958930000000     0.041070000000     0          
O54      O      0.041070000000     0.458930000000     0.541070000000     0          
O55      O      0.541070000000     0.958930000000     0.541070000000     0          
O56      O      0.541070000000     0.458930000000     0.041070000000     0          
O57      O      0.000000000000     0.934790000000     0.120390000000     0          
C58      C      0.000000000000     0.876300000000     0.186100000000     0          
H59      H      0.000000000000     0.908500000000     0.191200000000     0          
C60      C      0.000000000000     0.847500000000     0.224300000000     0          
H61      H      0.000000000000     0.859500000000     0.254500000000     0          
O62      O      0.000000000000     0.434790000000     0.620390000000     0          
C63      C      0.000000000000     0.376300000000     0.686100000000     0          
H64      H      0.000000000000     0.408500000000     0.691200000000     0          
C65      C      0.000000000000     0.347500000000     0.724300000000     0          
H66      H      0.000000000000     0.359500000000     0.754500000000     0          
O67      O      0.500000000000     0.934790000000     0.620390000000     0          
C68      C      0.500000000000     0.876300000000     0.686100000000     0          
H69      H      0.500000000000     0.908500000000     0.691200000000     0          
C70      C      0.500000000000     0.847500000000     0.724300000000     0          
H71      H      0.500000000000     0.859500000000     0.754500000000     0          
O72      O      0.500000000000     0.434790000000     0.120390000000     0          
C73      C      0.500000000000     0.376300000000     0.186100000000     0          
H74      H      0.500000000000     0.408500000000     0.191200000000     0          
C75      C      0.500000000000     0.347500000000     0.224300000000     0          
H76      H      0.500000000000     0.359500000000     0.254500000000     0          
O77      O      0.000000000000     0.065210000000     0.120390000000     0          
C78      C      0.000000000000     0.123700000000     0.186100000000     0          
H79      H      0.000000000000     0.091500000000     0.191200000000     0          
C80      C      0.000000000000     0.152500000000     0.224300000000     0          
H81      H      0.000000000000     0.140500000000     0.254500000000     0          
O82      O      0.000000000000     0.565210000000     0.620390000000     0          
C83      C      0.000000000000     0.623700000000     0.686100000000     0          
H84      H      0.000000000000     0.591500000000     0.691200000000     0          
C85      C      0.000000000000     0.652500000000     0.724300000000     0          
H86      H      0.000000000000     0.640500000000     0.754500000000     0          
O87      O      0.500000000000     0.065210000000     0.620390000000     0          
C88      C      0.500000000000     0.123700000000     0.686100000000     0          
H89      H      0.500000000000     0.091500000000     0.691200000000     0          
C90      C      0.500000000000     0.152500000000     0.724300000000     0          
H91      H      0.500000000000     0.140500000000     0.754500000000     0          
O92      O      0.500000000000     0.565210000000     0.120390000000     0          
C93      C      0.500000000000     0.623700000000     0.186100000000     0          
H94      H      0.500000000000     0.591500000000     0.191200000000     0          
C95      C      0.500000000000     0.652500000000     0.224300000000     0          
H96      H      0.500000000000     0.640500000000     0.254500000000     0          
O97      O      0.000000000000     0.934790000000     0.879610000000     0          
C98      C      0.000000000000     0.876300000000     0.813900000000     0          
H99      H      0.000000000000     0.908500000000     0.808800000000     0          
C100     C      0.000000000000     0.847500000000     0.775700000000     0          
H101     H      0.000000000000     0.859500000000     0.745500000000     0          
O102     O      0.000000000000     0.434790000000     0.379610000000     0          
C103     C      0.000000000000     0.376300000000     0.313900000000     0          
H104     H      0.000000000000     0.408500000000     0.308800000000     0          
C105     C      0.000000000000     0.347500000000     0.275700000000     0          
H106     H      0.000000000000     0.359500000000     0.245500000000     0          
O107     O      0.500000000000     0.934790000000     0.379610000000     0          
C108     C      0.500000000000     0.876300000000     0.313900000000     0          
H109     H      0.500000000000     0.908500000000     0.308800000000     0          
C110     C      0.500000000000     0.847500000000     0.275700000000     0          
H111     H      0.500000000000     0.859500000000     0.245500000000     0          
O112     O      0.500000000000     0.434790000000     0.879610000000     0          
C113     C      0.500000000000     0.376300000000     0.813900000000     0          
H114     H      0.500000000000     0.408500000000     0.808800000000     0          
C115     C      0.500000000000     0.347500000000     0.775700000000     0          
H116     H      0.500000000000     0.359500000000     0.745500000000     0          
O117     O      0.000000000000     0.065210000000     0.879610000000     0          
C118     C      0.000000000000     0.123700000000     0.813900000000     0          
H119     H      0.000000000000     0.091500000000     0.808800000000     0          
C120     C      0.000000000000     0.152500000000     0.775700000000     0          
H121     H      0.000000000000     0.140500000000     0.745500000000     0          
O122     O      0.000000000000     0.565210000000     0.379610000000     0          
C123     C      0.000000000000     0.623700000000     0.313900000000     0          
H124     H      0.000000000000     0.591500000000     0.308800000000     0          
C125     C      0.000000000000     0.652500000000     0.275700000000     0          
H126     H      0.000000000000     0.640500000000     0.245500000000     0          
O127     O      0.500000000000     0.065210000000     0.379610000000     0          
C128     C      0.500000000000     0.123700000000     0.313900000000     0          
H129     H      0.500000000000     0.091500000000     0.308800000000     0          
C130     C      0.500000000000     0.152500000000     0.275700000000     0          
H131     H      0.500000000000     0.140500000000     0.245500000000     0          
O132     O      0.500000000000     0.565210000000     0.879610000000     0          
C133     C      0.500000000000     0.623700000000     0.813900000000     0          
H134     H      0.500000000000     0.591500000000     0.808800000000     0          
C135     C      0.500000000000     0.652500000000     0.775700000000     0          
H136     H      0.500000000000     0.640500000000     0.745500000000     0          
O137     O      0.120390000000     0.000000000000     0.934790000000     0          
C138     C      0.186100000000     0.000000000000     0.876300000000     0          
H139     H      0.191200000000     0.000000000000     0.908500000000     0          
C140     C      0.224300000000     0.000000000000     0.847500000000     0          
H141     H      0.254500000000     0.000000000000     0.859500000000     0          
O142     O      0.120390000000     0.500000000000     0.434790000000     0          
C143     C      0.186100000000     0.500000000000     0.376300000000     0          
H144     H      0.191200000000     0.500000000000     0.408500000000     0          
C145     C      0.224300000000     0.500000000000     0.347500000000     0          
H146     H      0.254500000000     0.500000000000     0.359500000000     0          
O147     O      0.620390000000     0.000000000000     0.434790000000     0          
C148     C      0.686100000000     0.000000000000     0.376300000000     0          
H149     H      0.691200000000     0.000000000000     0.408500000000     0          
C150     C      0.718200000000     0.000000000000     0.300600000000     0          
C151     C      0.724300000000     0.000000000000     0.347500000000     0          
H152     H      0.754500000000     0.000000000000     0.359500000000     0          
N153     N      0.755900000000     0.000000000000     0.270630000000     0          
O154     O      0.620390000000     0.500000000000     0.934790000000     0          
C155     C      0.686100000000     0.500000000000     0.876300000000     0          
H156     H      0.691200000000     0.500000000000     0.908500000000     0          
C157     C      0.724300000000     0.500000000000     0.847500000000     0          
H158     H      0.754500000000     0.500000000000     0.859500000000     0          
O159     O      0.120390000000     0.000000000000     0.065210000000     0          
C160     C      0.186100000000     0.000000000000     0.123700000000     0          
H161     H      0.191200000000     0.000000000000     0.091500000000     0          
C162     C      0.218200000000     0.000000000000     0.199400000000     0          
C163     C      0.224300000000     0.000000000000     0.152500000000     0          
H164     H      0.254500000000     0.000000000000     0.140500000000     0          
N165     N      0.255900000000     0.000000000000     0.229370000000     0          
O166     O      0.120390000000     0.500000000000     0.565210000000     0          
C167     C      0.186100000000     0.500000000000     0.623700000000     0          
H168     H      0.191200000000     0.500000000000     0.591500000000     0          
C169     C      0.224300000000     0.500000000000     0.652500000000     0          
H170     H      0.254500000000     0.500000000000     0.640500000000     0          
O171     O      0.620390000000     0.000000000000     0.565210000000     0          
C172     C      0.686100000000     0.000000000000     0.623700000000     0          
H173     H      0.691200000000     0.000000000000     0.591500000000     0          
C174     C      0.718200000000     0.000000000000     0.699400000000     0          
C175     C      0.724300000000     0.000000000000     0.652500000000     0          
H176     H      0.754500000000     0.000000000000     0.640500000000     0          
N177     N      0.755900000000     0.000000000000     0.729370000000     0          
O178     O      0.620390000000     0.500000000000     0.065210000000     0          
C179     C      0.686100000000     0.500000000000     0.123700000000     0          
H180     H      0.691200000000     0.500000000000     0.091500000000     0          
C181     C      0.724300000000     0.500000000000     0.152500000000     0          
H182     H      0.754500000000     0.500000000000     0.140500000000     0          
O183     O      0.879610000000     0.000000000000     0.934790000000     0          
C184     C      0.813900000000     0.000000000000     0.876300000000     0          
H185     H      0.808800000000     0.000000000000     0.908500000000     0          
C186     C      0.781800000000     0.000000000000     0.800600000000     0          
C187     C      0.775700000000     0.000000000000     0.847500000000     0          
H188     H      0.745500000000     0.000000000000     0.859500000000     0          
N189     N      0.744100000000     0.000000000000     0.770630000000     0          
O190     O      0.879610000000     0.500000000000     0.434790000000     0          
C191     C      0.813900000000     0.500000000000     0.376300000000     0          
H192     H      0.808800000000     0.500000000000     0.408500000000     0          
C193     C      0.775700000000     0.500000000000     0.347500000000     0          
H194     H      0.745500000000     0.500000000000     0.359500000000     0          
O195     O      0.379610000000     0.000000000000     0.434790000000     0          
C196     C      0.313900000000     0.000000000000     0.376300000000     0          
H197     H      0.308800000000     0.000000000000     0.408500000000     0          
C198     C      0.281800000000     0.000000000000     0.300600000000     0          
C199     C      0.275700000000     0.000000000000     0.347500000000     0          
H200     H      0.245500000000     0.000000000000     0.359500000000     0          
N201     N      0.244100000000     0.000000000000     0.270630000000     0          
O202     O      0.379610000000     0.500000000000     0.934790000000     0          
C203     C      0.313900000000     0.500000000000     0.876300000000     0          
H204     H      0.308800000000     0.500000000000     0.908500000000     0          
C205     C      0.275700000000     0.500000000000     0.847500000000     0          
H206     H      0.245500000000     0.500000000000     0.859500000000     0          
O207     O      0.879610000000     0.000000000000     0.065210000000     0          
C208     C      0.813900000000     0.000000000000     0.123700000000     0          
H209     H      0.808800000000     0.000000000000     0.091500000000     0          
C210     C      0.781800000000     0.000000000000     0.199400000000     0          
C211     C      0.775700000000     0.000000000000     0.152500000000     0          
H212     H      0.745500000000     0.000000000000     0.140500000000     0          
N213     N      0.744100000000     0.000000000000     0.229370000000     0          
O214     O      0.879610000000     0.500000000000     0.565210000000     0          
C215     C      0.813900000000     0.500000000000     0.623700000000     0          
H216     H      0.808800000000     0.500000000000     0.591500000000     0          
C217     C      0.775700000000     0.500000000000     0.652500000000     0          
H218     H      0.745500000000     0.500000000000     0.640500000000     0          
O219     O      0.379610000000     0.000000000000     0.565210000000     0          
C220     C      0.313900000000     0.000000000000     0.623700000000     0          
H221     H      0.308800000000     0.000000000000     0.591500000000     0          
C222     C      0.275700000000     0.000000000000     0.652500000000     0          
H223     H      0.245500000000     0.000000000000     0.640500000000     0          
O224     O      0.379610000000     0.500000000000     0.065210000000     0          
C225     C      0.313900000000     0.500000000000     0.123700000000     0          
H226     H      0.308800000000     0.500000000000     0.091500000000     0          
C227     C      0.275700000000     0.500000000000     0.152500000000     0          
H228     H      0.245500000000     0.500000000000     0.140500000000     0          
O229     O      0.934790000000     0.120390000000     0.000000000000     0          
C230     C      0.876300000000     0.186100000000     0.000000000000     0          
H231     H      0.908500000000     0.191200000000     0.000000000000     0          
C232     C      0.847500000000     0.224300000000     0.000000000000     0          
H233     H      0.859500000000     0.254500000000     0.000000000000     0          
O234     O      0.934790000000     0.620390000000     0.500000000000     0          
C235     C      0.876300000000     0.686100000000     0.500000000000     0          
H236     H      0.908500000000     0.691200000000     0.500000000000     0          
C237     C      0.800600000000     0.718200000000     0.500000000000     0          
C238     C      0.847500000000     0.724300000000     0.500000000000     0          
H239     H      0.859500000000     0.754500000000     0.500000000000     0          
N240     N      0.770630000000     0.755900000000     0.500000000000     0          
O241     O      0.434790000000     0.120390000000     0.500000000000     0          
C242     C      0.376300000000     0.186100000000     0.500000000000     0          
H243     H      0.408500000000     0.191200000000     0.500000000000     0          
C244     C      0.347500000000     0.224300000000     0.500000000000     0          
H245     H      0.359500000000     0.254500000000     0.500000000000     0          
O246     O      0.434790000000     0.620390000000     0.000000000000     0          
C247     C      0.376300000000     0.686100000000     0.000000000000     0          
H248     H      0.408500000000     0.691200000000     0.000000000000     0          
C249     C      0.347500000000     0.724300000000     0.000000000000     0          
H250     H      0.359500000000     0.754500000000     0.000000000000     0          
O251     O      0.065210000000     0.120390000000     0.000000000000     0          
C252     C      0.123700000000     0.186100000000     0.000000000000     0          
H253     H      0.091500000000     0.191200000000     0.000000000000     0          
C254     C      0.152500000000     0.224300000000     0.000000000000     0          
H255     H      0.140500000000     0.254500000000     0.000000000000     0          
O256     O      0.065210000000     0.620390000000     0.500000000000     0          
C257     C      0.123700000000     0.686100000000     0.500000000000     0          
H258     H      0.091500000000     0.691200000000     0.500000000000     0          
C259     C      0.161740000000     0.720020000000     0.500000000000     0          
H260     H      0.140500000000     0.754500000000     0.500000000000     0          
O261     O      0.565210000000     0.120390000000     0.500000000000     0          
C262     C      0.623700000000     0.186100000000     0.500000000000     0          
H263     H      0.591500000000     0.191200000000     0.500000000000     0          
C264     C      0.699400000000     0.218200000000     0.500000000000     0          
C265     C      0.652500000000     0.224300000000     0.500000000000     0          
H266     H      0.640500000000     0.254500000000     0.500000000000     0          
N267     N      0.729370000000     0.255900000000     0.500000000000     0          
O268     O      0.565210000000     0.620390000000     0.000000000000     0          
C269     C      0.623700000000     0.686100000000     0.000000000000     0          
H270     H      0.591500000000     0.691200000000     0.000000000000     0          
C271     C      0.652500000000     0.724300000000     0.000000000000     0          
H272     H      0.640500000000     0.754500000000     0.000000000000     0          
O273     O      0.934790000000     0.879610000000     0.000000000000     0          
C274     C      0.876300000000     0.813900000000     0.000000000000     0          
H275     H      0.908500000000     0.808800000000     0.000000000000     0          
C276     C      0.847500000000     0.775700000000     0.000000000000     0          
H277     H      0.859500000000     0.745500000000     0.000000000000     0          
O278     O      0.934790000000     0.379610000000     0.500000000000     0          
C279     C      0.876300000000     0.313900000000     0.500000000000     0          
H280     H      0.908500000000     0.308800000000     0.500000000000     0          
C281     C      0.800600000000     0.281800000000     0.500000000000     0          
C282     C      0.847500000000     0.275700000000     0.500000000000     0          
H283     H      0.859500000000     0.245500000000     0.500000000000     0          
N284     N      0.770630000000     0.244100000000     0.500000000000     0          
O285     O      0.434790000000     0.879610000000     0.500000000000     0          
C286     C      0.376300000000     0.813900000000     0.500000000000     0          
H287     H      0.408500000000     0.808800000000     0.500000000000     0          
C288     C      0.347500000000     0.775700000000     0.500000000000     0          
H289     H      0.359500000000     0.745500000000     0.500000000000     0          
O290     O      0.434790000000     0.379610000000     0.000000000000     0          
C291     C      0.376300000000     0.313900000000     0.000000000000     0          
H292     H      0.408500000000     0.308800000000     0.000000000000     0          
C293     C      0.347500000000     0.275700000000     0.000000000000     0          
H294     H      0.359500000000     0.245500000000     0.000000000000     0          
O295     O      0.065210000000     0.879610000000     0.000000000000     0          
C296     C      0.123700000000     0.813900000000     0.000000000000     0          
H297     H      0.091500000000     0.808800000000     0.000000000000     0          
C298     C      0.152500000000     0.775700000000     0.000000000000     0          
H299     H      0.140500000000     0.745500000000     0.000000000000     0          
O300     O      0.065210000000     0.379610000000     0.500000000000     0          
C301     C      0.123700000000     0.313900000000     0.500000000000     0          
H302     H      0.091500000000     0.308800000000     0.500000000000     0          
C303     C      0.152500000000     0.275700000000     0.500000000000     0          
H304     H      0.140500000000     0.245500000000     0.500000000000     0          
O305     O      0.565210000000     0.879610000000     0.500000000000     0          
C306     C      0.623700000000     0.813900000000     0.500000000000     0          
H307     H      0.591500000000     0.808800000000     0.500000000000     0          
C308     C      0.699400000000     0.781800000000     0.500000000000     0          
C309     C      0.652500000000     0.775700000000     0.500000000000     0          
H310     H      0.640500000000     0.745500000000     0.500000000000     0          
N311     N      0.729370000000     0.744100000000     0.500000000000     0          
O312     O      0.565210000000     0.379610000000     0.000000000000     0          
C313     C      0.623700000000     0.313900000000     0.000000000000     0          
H314     H      0.591500000000     0.308800000000     0.000000000000     0          
C315     C      0.652500000000     0.275700000000     0.000000000000     0          
H316     H      0.640500000000     0.245500000000     0.000000000000     0          
O317     O      0.934790000000     0.000000000000     0.879610000000     0          
C318     C      0.876300000000     0.000000000000     0.813900000000     0          
H319     H      0.908500000000     0.000000000000     0.808800000000     0          
C320     C      0.847500000000     0.000000000000     0.775700000000     0          
H321     H      0.859500000000     0.000000000000     0.745500000000     0          
O322     O      0.934790000000     0.500000000000     0.379610000000     0          
C323     C      0.876300000000     0.500000000000     0.313900000000     0          
H324     H      0.908500000000     0.500000000000     0.308800000000     0          
C325     C      0.800600000000     0.500000000000     0.281800000000     0          
C326     C      0.847500000000     0.500000000000     0.275700000000     0          
H327     H      0.859500000000     0.500000000000     0.245500000000     0          
N328     N      0.770630000000     0.500000000000     0.244100000000     0          
O329     O      0.434790000000     0.000000000000     0.379610000000     0          
C330     C      0.376300000000     0.000000000000     0.313900000000     0          
H331     H      0.408500000000     0.000000000000     0.308800000000     0          
C332     C      0.347500000000     0.000000000000     0.275700000000     0          
H333     H      0.359500000000     0.000000000000     0.245500000000     0          
O334     O      0.434790000000     0.500000000000     0.879610000000     0          
C335     C      0.376300000000     0.500000000000     0.813900000000     0          
H336     H      0.408500000000     0.500000000000     0.808800000000     0          
C337     C      0.300600000000     0.500000000000     0.781800000000     0          
C338     C      0.347500000000     0.500000000000     0.775700000000     0          
H339     H      0.359500000000     0.500000000000     0.745500000000     0          
N340     N      0.270630000000     0.500000000000     0.744100000000     0          
O341     O      0.065210000000     0.000000000000     0.879610000000     0          
C342     C      0.123700000000     0.000000000000     0.813900000000     0          
H343     H      0.091500000000     0.000000000000     0.808800000000     0          
C344     C      0.199400000000     0.000000000000     0.781800000000     0          
C345     C      0.152500000000     0.000000000000     0.775700000000     0          
H346     H      0.140500000000     0.000000000000     0.745500000000     0          
N347     N      0.229370000000     0.000000000000     0.744100000000     0          
O348     O      0.065210000000     0.500000000000     0.379610000000     0          
C349     C      0.123700000000     0.500000000000     0.313900000000     0          
H350     H      0.091500000000     0.500000000000     0.308800000000     0          
C351     C      0.199400000000     0.500000000000     0.281800000000     0          
C352     C      0.152500000000     0.500000000000     0.275700000000     0          
H353     H      0.140500000000     0.500000000000     0.245500000000     0          
N354     N      0.229370000000     0.500000000000     0.244100000000     0          
O355     O      0.565210000000     0.000000000000     0.379610000000     0          
C356     C      0.623700000000     0.000000000000     0.313900000000     0          
H357     H      0.591500000000     0.000000000000     0.308800000000     0          
C358     C      0.652500000000     0.000000000000     0.275700000000     0          
H359     H      0.640500000000     0.000000000000     0.245500000000     0          
O360     O      0.565210000000     0.500000000000     0.879610000000     0          
C361     C      0.623700000000     0.500000000000     0.813900000000     0          
H362     H      0.591500000000     0.500000000000     0.808800000000     0          
C363     C      0.699400000000     0.500000000000     0.781800000000     0          
C364     C      0.652500000000     0.500000000000     0.775700000000     0          
H365     H      0.640500000000     0.500000000000     0.745500000000     0          
N366     N      0.729370000000     0.500000000000     0.744100000000     0          
O367     O      0.934790000000     0.000000000000     0.120390000000     0          
C368     C      0.876300000000     0.000000000000     0.186100000000     0          
H369     H      0.908500000000     0.000000000000     0.191200000000     0          
C370     C      0.847500000000     0.000000000000     0.224300000000     0          
H371     H      0.859500000000     0.000000000000     0.254500000000     0          
O372     O      0.934790000000     0.500000000000     0.620390000000     0          
C373     C      0.876300000000     0.500000000000     0.686100000000     0          
H374     H      0.908500000000     0.500000000000     0.691200000000     0          
C375     C      0.800600000000     0.500000000000     0.718200000000     0          
C376     C      0.847500000000     0.500000000000     0.724300000000     0          
H377     H      0.859500000000     0.500000000000     0.754500000000     0          
N378     N      0.770630000000     0.500000000000     0.755900000000     0          
O379     O      0.434790000000     0.000000000000     0.620390000000     0          
C380     C      0.376300000000     0.000000000000     0.686100000000     0          
H381     H      0.408500000000     0.000000000000     0.691200000000     0          
C382     C      0.300600000000     0.000000000000     0.718200000000     0          
C383     C      0.347500000000     0.000000000000     0.724300000000     0          
H384     H      0.359500000000     0.000000000000     0.754500000000     0          
N385     N      0.270630000000     0.000000000000     0.755900000000     0          
O386     O      0.434790000000     0.500000000000     0.120390000000     0          
C387     C      0.376300000000     0.500000000000     0.186100000000     0          
H388     H      0.408500000000     0.500000000000     0.191200000000     0          
C389     C      0.300600000000     0.500000000000     0.218200000000     0          
C390     C      0.347500000000     0.500000000000     0.224300000000     0          
H391     H      0.359500000000     0.500000000000     0.254500000000     0          
N392     N      0.270630000000     0.500000000000     0.255900000000     0          
O393     O      0.065210000000     0.000000000000     0.120390000000     0          
C394     C      0.123700000000     0.000000000000     0.186100000000     0          
H395     H      0.091500000000     0.000000000000     0.191200000000     0          
C396     C      0.152500000000     0.000000000000     0.224300000000     0          
H397     H      0.140500000000     0.000000000000     0.254500000000     0          
O398     O      0.065210000000     0.500000000000     0.620390000000     0          
C399     C      0.123700000000     0.500000000000     0.686100000000     0          
H400     H      0.091500000000     0.500000000000     0.691200000000     0          
C401     C      0.199400000000     0.500000000000     0.718200000000     0          
C402     C      0.152500000000     0.500000000000     0.724300000000     0          
H403     H      0.140500000000     0.500000000000     0.754500000000     0          
N404     N      0.229370000000     0.500000000000     0.755900000000     0          
O405     O      0.565210000000     0.000000000000     0.620390000000     0          
C406     C      0.623700000000     0.000000000000     0.686100000000     0          
H407     H      0.591500000000     0.000000000000     0.691200000000     0          
C408     C      0.652500000000     0.000000000000     0.724300000000     0          
H409     H      0.640500000000     0.000000000000     0.754500000000     0          
O410     O      0.565210000000     0.500000000000     0.120390000000     0          
C411     C      0.623700000000     0.500000000000     0.186100000000     0          
H412     H      0.591500000000     0.500000000000     0.191200000000     0          
C413     C      0.699400000000     0.500000000000     0.218200000000     0          
C414     C      0.652500000000     0.500000000000     0.224300000000     0          
H415     H      0.640500000000     0.500000000000     0.254500000000     0          
N416     N      0.729370000000     0.500000000000     0.255900000000     0          
O417     O      0.000000000000     0.120390000000     0.065210000000     0          
C418     C      0.000000000000     0.186100000000     0.123700000000     0          
H419     H      0.000000000000     0.191200000000     0.091500000000     0          
C420     C      0.000000000000     0.218200000000     0.199400000000     0          
C421     C      0.000000000000     0.224300000000     0.152500000000     0          
H422     H      0.000000000000     0.254500000000     0.140500000000     0          
N423     N      0.000000000000     0.255900000000     0.229370000000     0          
O424     O      0.000000000000     0.620390000000     0.565210000000     0          
C425     C      0.000000000000     0.686100000000     0.623700000000     0          
H426     H      0.000000000000     0.691200000000     0.591500000000     0          
C427     C      0.000000000000     0.718200000000     0.699400000000     0          
C428     C      0.000000000000     0.724300000000     0.652500000000     0          
H429     H      0.000000000000     0.754500000000     0.640500000000     0          
N430     N      0.000000000000     0.755900000000     0.729370000000     0          
O431     O      0.500000000000     0.120390000000     0.565210000000     0          
C432     C      0.500000000000     0.186100000000     0.623700000000     0          
H433     H      0.500000000000     0.191200000000     0.591500000000     0          
C434     C      0.500000000000     0.218200000000     0.699400000000     0          
C435     C      0.500000000000     0.224300000000     0.652500000000     0          
H436     H      0.500000000000     0.254500000000     0.640500000000     0          
N437     N      0.500000000000     0.255900000000     0.729370000000     0          
O438     O      0.500000000000     0.620390000000     0.065210000000     0          
C439     C      0.500000000000     0.686100000000     0.123700000000     0          
H440     H      0.500000000000     0.691200000000     0.091500000000     0          
C441     C      0.500000000000     0.718200000000     0.199400000000     0          
C442     C      0.500000000000     0.724300000000     0.152500000000     0          
H443     H      0.500000000000     0.754500000000     0.140500000000     0          
N444     N      0.500000000000     0.755900000000     0.229370000000     0          
O445     O      0.000000000000     0.120390000000     0.934790000000     0          
C446     C      0.000000000000     0.186100000000     0.876300000000     0          
H447     H      0.000000000000     0.191200000000     0.908500000000     0          
C448     C      0.000000000000     0.218200000000     0.800600000000     0          
C449     C      0.000000000000     0.224300000000     0.847500000000     0          
H450     H      0.000000000000     0.254500000000     0.859500000000     0          
N451     N      0.000000000000     0.255900000000     0.770630000000     0          
O452     O      0.000000000000     0.620390000000     0.434790000000     0          
C453     C      0.000000000000     0.686100000000     0.376300000000     0          
H454     H      0.000000000000     0.691200000000     0.408500000000     0          
C455     C      0.000000000000     0.718200000000     0.300600000000     0          
C456     C      0.000000000000     0.724300000000     0.347500000000     0          
H457     H      0.000000000000     0.754500000000     0.359500000000     0          
N458     N      0.000000000000     0.755900000000     0.270630000000     0          
O459     O      0.500000000000     0.120390000000     0.434790000000     0          
C460     C      0.500000000000     0.186100000000     0.376300000000     0          
H461     H      0.500000000000     0.191200000000     0.408500000000     0          
C462     C      0.500000000000     0.218200000000     0.300600000000     0          
C463     C      0.500000000000     0.224300000000     0.347500000000     0          
H464     H      0.500000000000     0.254500000000     0.359500000000     0          
N465     N      0.500000000000     0.255900000000     0.270630000000     0          
O466     O      0.500000000000     0.620390000000     0.934790000000     0          
C467     C      0.500000000000     0.686100000000     0.876300000000     0          
H468     H      0.500000000000     0.691200000000     0.908500000000     0          
C469     C      0.500000000000     0.718200000000     0.800600000000     0          
C470     C      0.500000000000     0.724300000000     0.847500000000     0          
H471     H      0.500000000000     0.754500000000     0.859500000000     0          
N472     N      0.500000000000     0.755900000000     0.770630000000     0          
O473     O      0.000000000000     0.879610000000     0.065210000000     0          
C474     C      0.000000000000     0.813900000000     0.123700000000     0          
H475     H      0.000000000000     0.808800000000     0.091500000000     0          
C476     C      0.000000000000     0.781800000000     0.199400000000     0          
C477     C      0.000000000000     0.775700000000     0.152500000000     0          
H478     H      0.000000000000     0.745500000000     0.140500000000     0          
N479     N      0.000000000000     0.744100000000     0.229370000000     0          
O480     O      0.000000000000     0.379610000000     0.565210000000     0          
C481     C      0.000000000000     0.313900000000     0.623700000000     0          
H482     H      0.000000000000     0.308800000000     0.591500000000     0          
C483     C      0.000000000000     0.281800000000     0.699400000000     0          
C484     C      0.000000000000     0.275700000000     0.652500000000     0          
H485     H      0.000000000000     0.245500000000     0.640500000000     0          
N486     N      0.000000000000     0.244100000000     0.729370000000     0          
O487     O      0.500000000000     0.879610000000     0.565210000000     0          
C488     C      0.500000000000     0.813900000000     0.623700000000     0          
H489     H      0.500000000000     0.808800000000     0.591500000000     0          
C490     C      0.500000000000     0.781800000000     0.699400000000     0          
C491     C      0.500000000000     0.775700000000     0.652500000000     0          
H492     H      0.500000000000     0.745500000000     0.640500000000     0          
N493     N      0.500000000000     0.744100000000     0.729370000000     0          
O494     O      0.500000000000     0.379610000000     0.065210000000     0          
C495     C      0.500000000000     0.313900000000     0.123700000000     0          
H496     H      0.500000000000     0.308800000000     0.091500000000     0          
C497     C      0.500000000000     0.281800000000     0.199400000000     0          
C498     C      0.500000000000     0.275700000000     0.152500000000     0          
H499     H      0.500000000000     0.245500000000     0.140500000000     0          
N500     N      0.500000000000     0.244100000000     0.229370000000     0          
O501     O      0.000000000000     0.879610000000     0.934790000000     0          
C502     C      0.000000000000     0.813900000000     0.876300000000     0          
H503     H      0.000000000000     0.808800000000     0.908500000000     0          
C504     C      0.000000000000     0.781800000000     0.800600000000     0          
C505     C      0.000000000000     0.775700000000     0.847500000000     0          
H506     H      0.000000000000     0.745500000000     0.859500000000     0          
N507     N      0.000000000000     0.744100000000     0.770630000000     0          
O508     O      0.000000000000     0.379610000000     0.434790000000     0          
C509     C      0.000000000000     0.313900000000     0.376300000000     0          
H510     H      0.000000000000     0.308800000000     0.408500000000     0          
C511     C      0.000000000000     0.281800000000     0.300600000000     0          
C512     C      0.000000000000     0.275700000000     0.347500000000     0          
H513     H      0.000000000000     0.245500000000     0.359500000000     0          
N514     N      0.000000000000     0.244100000000     0.270630000000     0          
O515     O      0.500000000000     0.879610000000     0.434790000000     0          
C516     C      0.500000000000     0.813900000000     0.376300000000     0          
H517     H      0.500000000000     0.808800000000     0.408500000000     0          
C518     C      0.500000000000     0.781800000000     0.300600000000     0          
C519     C      0.500000000000     0.775700000000     0.347500000000     0          
H520     H      0.500000000000     0.745500000000     0.359500000000     0          
N521     N      0.500000000000     0.744100000000     0.270630000000     0          
O522     O      0.500000000000     0.379610000000     0.934790000000     0          
C523     C      0.500000000000     0.313900000000     0.876300000000     0          
H524     H      0.500000000000     0.308800000000     0.908500000000     0          
C525     C      0.500000000000     0.281800000000     0.800600000000     0          
C526     C      0.500000000000     0.275700000000     0.847500000000     0          
H527     H      0.500000000000     0.245500000000     0.859500000000     0          
N528     N      0.500000000000     0.244100000000     0.770630000000     0          
O529     O      0.120390000000     0.934790000000     0.000000000000     0          
C530     C      0.186100000000     0.876300000000     0.000000000000     0          
H531     H      0.191200000000     0.908500000000     0.000000000000     0          
C532     C      0.218200000000     0.800600000000     0.000000000000     0          
C533     C      0.224300000000     0.847500000000     0.000000000000     0          
H534     H      0.254500000000     0.859500000000     0.000000000000     0          
N535     N      0.255900000000     0.770630000000     0.000000000000     0          
O536     O      0.120390000000     0.434790000000     0.500000000000     0          
C537     C      0.186100000000     0.376300000000     0.500000000000     0          
H538     H      0.191200000000     0.408500000000     0.500000000000     0          
C539     C      0.218200000000     0.300600000000     0.500000000000     0          
C540     C      0.224300000000     0.347500000000     0.500000000000     0          
H541     H      0.254500000000     0.359500000000     0.500000000000     0          
N542     N      0.255900000000     0.270630000000     0.500000000000     0          
O543     O      0.620390000000     0.934790000000     0.500000000000     0          
C544     C      0.686100000000     0.876300000000     0.500000000000     0          
H545     H      0.691200000000     0.908500000000     0.500000000000     0          
C546     C      0.724300000000     0.847500000000     0.500000000000     0          
H547     H      0.754500000000     0.859500000000     0.500000000000     0          
O548     O      0.620390000000     0.434790000000     0.000000000000     0          
C549     C      0.686100000000     0.376300000000     0.000000000000     0          
H550     H      0.691200000000     0.408500000000     0.000000000000     0          
C551     C      0.718200000000     0.300600000000     0.000000000000     0          
C552     C      0.724300000000     0.347500000000     0.000000000000     0          
H553     H      0.754500000000     0.359500000000     0.000000000000     0          
N554     N      0.755900000000     0.270630000000     0.000000000000     0          
O555     O      0.120390000000     0.065210000000     0.000000000000     0          
C556     C      0.186100000000     0.123700000000     0.000000000000     0          
H557     H      0.191200000000     0.091500000000     0.000000000000     0          
C558     C      0.218200000000     0.199400000000     0.000000000000     0          
C559     C      0.224300000000     0.152500000000     0.000000000000     0          
H560     H      0.254500000000     0.140500000000     0.000000000000     0          
N561     N      0.255900000000     0.229370000000     0.000000000000     0          
O562     O      0.120390000000     0.565210000000     0.500000000000     0          
C563     C      0.186100000000     0.623700000000     0.500000000000     0          
H564     H      0.191200000000     0.591500000000     0.500000000000     0          
C565     C      0.216360000000     0.700550000000     0.500000000000     0          
C566     C      0.224300000000     0.652500000000     0.500000000000     0          
H567     H      0.254500000000     0.640500000000     0.500000000000     0          
N568     N      0.255900000000     0.729370000000     0.500000000000     0          
O569     O      0.620390000000     0.065210000000     0.500000000000     0          
C570     C      0.686100000000     0.123700000000     0.500000000000     0          
H571     H      0.691200000000     0.091500000000     0.500000000000     0          
C572     C      0.724300000000     0.152500000000     0.500000000000     0          
H573     H      0.754500000000     0.140500000000     0.500000000000     0          
O574     O      0.620390000000     0.565210000000     0.000000000000     0          
C575     C      0.686100000000     0.623700000000     0.000000000000     0          
H576     H      0.691200000000     0.591500000000     0.000000000000     0          
C577     C      0.718200000000     0.699400000000     0.000000000000     0          
C578     C      0.724300000000     0.652500000000     0.000000000000     0          
H579     H      0.754500000000     0.640500000000     0.000000000000     0          
N580     N      0.755900000000     0.729370000000     0.000000000000     0          
O581     O      0.879610000000     0.934790000000     0.000000000000     0          
C582     C      0.813900000000     0.876300000000     0.000000000000     0          
H583     H      0.808800000000     0.908500000000     0.000000000000     0          
C584     C      0.781800000000     0.800600000000     0.000000000000     0          
C585     C      0.775700000000     0.847500000000     0.000000000000     0          
H586     H      0.745500000000     0.859500000000     0.000000000000     0          
N587     N      0.744100000000     0.770630000000     0.000000000000     0          
O588     O      0.879610000000     0.434790000000     0.500000000000     0          
C589     C      0.813900000000     0.376300000000     0.500000000000     0          
H590     H      0.808800000000     0.408500000000     0.500000000000     0          
C591     C      0.775700000000     0.347500000000     0.500000000000     0          
H592     H      0.745500000000     0.359500000000     0.500000000000     0          
O593     O      0.379610000000     0.934790000000     0.500000000000     0          
C594     C      0.313900000000     0.876300000000     0.500000000000     0          
H595     H      0.308800000000     0.908500000000     0.500000000000     0          
C596     C      0.281800000000     0.800600000000     0.500000000000     0          
C597     C      0.275700000000     0.847500000000     0.500000000000     0          
H598     H      0.245500000000     0.859500000000     0.500000000000     0          
N599     N      0.244100000000     0.770630000000     0.500000000000     0          
O600     O      0.379610000000     0.434790000000     0.000000000000     0          
C601     C      0.313900000000     0.376300000000     0.000000000000     0          
H602     H      0.308800000000     0.408500000000     0.000000000000     0          
C603     C      0.281800000000     0.300600000000     0.000000000000     0          
C604     C      0.275700000000     0.347500000000     0.000000000000     0          
H605     H      0.245500000000     0.359500000000     0.000000000000     0          
N606     N      0.244100000000     0.270630000000     0.000000000000     0          
O607     O      0.879610000000     0.065210000000     0.000000000000     0          
C608     C      0.813900000000     0.123700000000     0.000000000000     0          
H609     H      0.808800000000     0.091500000000     0.000000000000     0          
C610     C      0.781800000000     0.199400000000     0.000000000000     0          
C611     C      0.775700000000     0.152500000000     0.000000000000     0          
H612     H      0.745500000000     0.140500000000     0.000000000000     0          
N613     N      0.744100000000     0.229370000000     0.000000000000     0          
O614     O      0.879610000000     0.565210000000     0.500000000000     0          
C615     C      0.813900000000     0.623700000000     0.500000000000     0          
H616     H      0.808800000000     0.591500000000     0.500000000000     0          
C617     C      0.775700000000     0.652500000000     0.500000000000     0          
H618     H      0.745500000000     0.640500000000     0.500000000000     0          
O619     O      0.379610000000     0.065210000000     0.500000000000     0          
C620     C      0.313900000000     0.123700000000     0.500000000000     0          
H621     H      0.308800000000     0.091500000000     0.500000000000     0          
C622     C      0.281800000000     0.199400000000     0.500000000000     0          
C623     C      0.275700000000     0.152500000000     0.500000000000     0          
H624     H      0.245500000000     0.140500000000     0.500000000000     0          
N625     N      0.244100000000     0.229370000000     0.500000000000     0          
O626     O      0.379610000000     0.565210000000     0.000000000000     0          
C627     C      0.313900000000     0.623700000000     0.000000000000     0          
H628     H      0.308800000000     0.591500000000     0.000000000000     0          
C629     C      0.281800000000     0.699400000000     0.000000000000     0          
C630     C      0.275700000000     0.652500000000     0.000000000000     0          
H631     H      0.245500000000     0.640500000000     0.000000000000     0          
N632     N      0.244100000000     0.729370000000     0.000000000000     0          
C633     C      0.000000000000     0.893630000000     0.106370000000     0          
C634     C      0.000000000000     0.858120000000     0.141880000000     0          
C635     C      0.000000000000     0.393630000000     0.606370000000     0          
C636     C      0.000000000000     0.358120000000     0.641880000000     0          
C637     C      0.500000000000     0.893630000000     0.606370000000     0          
C638     C      0.500000000000     0.858120000000     0.641880000000     0          
C639     C      0.500000000000     0.393630000000     0.106370000000     0          
C640     C      0.500000000000     0.358120000000     0.141880000000     0          
C641     C      0.000000000000     0.106370000000     0.106370000000     0          
C642     C      0.000000000000     0.141880000000     0.141880000000     0          
C643     C      0.000000000000     0.606370000000     0.606370000000     0          
C644     C      0.000000000000     0.641880000000     0.641880000000     0          
C645     C      0.500000000000     0.106370000000     0.606370000000     0          
C646     C      0.500000000000     0.141880000000     0.641880000000     0          
C647     C      0.500000000000     0.606370000000     0.106370000000     0          
C648     C      0.500000000000     0.641880000000     0.141880000000     0          
C649     C      0.000000000000     0.893630000000     0.893630000000     0          
C650     C      0.000000000000     0.858120000000     0.858120000000     0          
C651     C      0.000000000000     0.393630000000     0.393630000000     0          
C652     C      0.000000000000     0.358120000000     0.358120000000     0          
C653     C      0.500000000000     0.893630000000     0.393630000000     0          
C654     C      0.500000000000     0.858120000000     0.358120000000     0          
C655     C      0.500000000000     0.393630000000     0.893630000000     0          
C656     C      0.500000000000     0.358120000000     0.858120000000     0          
C657     C      0.000000000000     0.106370000000     0.893630000000     0          
C658     C      0.000000000000     0.141880000000     0.858120000000     0          
C659     C      0.000000000000     0.606370000000     0.393630000000     0          
C660     C      0.000000000000     0.641880000000     0.358120000000     0          
C661     C      0.500000000000     0.106370000000     0.393630000000     0          
C662     C      0.500000000000     0.141880000000     0.358120000000     0          
C663     C      0.500000000000     0.606370000000     0.893630000000     0          
C664     C      0.500000000000     0.641880000000     0.858120000000     0          
C665     C      0.106370000000     0.000000000000     0.893630000000     0          
C666     C      0.141880000000     0.000000000000     0.858120000000     0          
C667     C      0.106370000000     0.500000000000     0.393630000000     0          
C668     C      0.141880000000     0.500000000000     0.358120000000     0          
C669     C      0.606370000000     0.000000000000     0.393630000000     0          
C670     C      0.641880000000     0.000000000000     0.358120000000     0          
C671     C      0.606370000000     0.500000000000     0.893630000000     0          
C672     C      0.641880000000     0.500000000000     0.858120000000     0          
C673     C      0.106370000000     0.000000000000     0.106370000000     0          
C674     C      0.141880000000     0.000000000000     0.141880000000     0          
C675     C      0.106370000000     0.500000000000     0.606370000000     0          
C676     C      0.141880000000     0.500000000000     0.641880000000     0          
C677     C      0.606370000000     0.000000000000     0.606370000000     0          
C678     C      0.641880000000     0.000000000000     0.641880000000     0          
C679     C      0.606370000000     0.500000000000     0.106370000000     0          
C680     C      0.641880000000     0.500000000000     0.141880000000     0          
C681     C      0.893630000000     0.000000000000     0.893630000000     0          
C682     C      0.858120000000     0.000000000000     0.858120000000     0          
C683     C      0.893630000000     0.500000000000     0.393630000000     0          
C684     C      0.858120000000     0.500000000000     0.358120000000     0          
C685     C      0.393630000000     0.000000000000     0.393630000000     0          
C686     C      0.358120000000     0.000000000000     0.358120000000     0          
C687     C      0.393630000000     0.500000000000     0.893630000000     0          
C688     C      0.358120000000     0.500000000000     0.858120000000     0          
C689     C      0.893630000000     0.000000000000     0.106370000000     0          
C690     C      0.858120000000     0.000000000000     0.141880000000     0          
C691     C      0.893630000000     0.500000000000     0.606370000000     0          
C692     C      0.858120000000     0.500000000000     0.641880000000     0          
C693     C      0.393630000000     0.000000000000     0.606370000000     0          
C694     C      0.358120000000     0.000000000000     0.641880000000     0          
C695     C      0.393630000000     0.500000000000     0.106370000000     0          
C696     C      0.358120000000     0.500000000000     0.141880000000     0          
C697     C      0.893630000000     0.106370000000     0.000000000000     0          
C698     C      0.858120000000     0.141880000000     0.000000000000     0          
C699     C      0.893630000000     0.606370000000     0.500000000000     0          
C700     C      0.858120000000     0.641880000000     0.500000000000     0          
C701     C      0.393630000000     0.106370000000     0.500000000000     0          
C702     C      0.358120000000     0.141880000000     0.500000000000     0          
C703     C      0.393630000000     0.606370000000     0.000000000000     0          
C704     C      0.358120000000     0.641880000000     0.000000000000     0          
C705     C      0.106370000000     0.106370000000     0.000000000000     0          
C706     C      0.141880000000     0.141880000000     0.000000000000     0          
C707     C      0.106370000000     0.606370000000     0.500000000000     0          
C708     C      0.141880000000     0.641880000000     0.500000000000     0          
C709     C      0.606370000000     0.106370000000     0.500000000000     0          
C710     C      0.641880000000     0.141880000000     0.500000000000     0          
C711     C      0.606370000000     0.606370000000     0.000000000000     0          
C712     C      0.641880000000     0.641880000000     0.000000000000     0          
C713     C      0.893630000000     0.893630000000     0.000000000000     0          
C714     C      0.858120000000     0.858120000000     0.000000000000     0          
C715     C      0.893630000000     0.393630000000     0.500000000000     0          
C716     C      0.858120000000     0.358120000000     0.500000000000     0          
C717     C      0.393630000000     0.893630000000     0.500000000000     0          
C718     C      0.358120000000     0.858120000000     0.500000000000     0          
C719     C      0.393630000000     0.393630000000     0.000000000000     0          
C720     C      0.358120000000     0.358120000000     0.000000000000     0          
C721     C      0.106370000000     0.893630000000     0.000000000000     0          
C722     C      0.141880000000     0.858120000000     0.000000000000     0          
C723     C      0.106370000000     0.393630000000     0.500000000000     0          
C724     C      0.141880000000     0.358120000000     0.500000000000     0          
C725     C      0.606370000000     0.893630000000     0.500000000000     0          
C726     C      0.641880000000     0.858120000000     0.500000000000     0          
C727     C      0.606370000000     0.393630000000     0.000000000000     0          
C728     C      0.641880000000     0.358120000000     0.000000000000     0          


