data_RAZVUM

_audit_creation_method RASPA-1.0
_audit_creation_date 2020-12-14
_audit_author_name 'Rocio Bueno-Perez'

_cell_length_a    29.5566
_cell_length_b    29.557
_cell_length_c    29.557
_cell_angle_alpha 90
_cell_angle_beta  90
_cell_angle_gamma 90
_cell_volume      25821.1

_symmetry_cell_setting          triclinic
_symmetry_space_group_name_Hall 'P 1'
_symmetry_space_group_name_H-M  'P 1'
_symmetry_Int_Tables_number     1

_symmetry_equiv_pos_as_xyz 'x,y,z'

loop_
_atom_site_label
_atom_site_type_symbol
_atom_site_fract_x
_atom_site_fract_y
_atom_site_fract_z
_atom_site_charge
Zr1      Zr     0.500000000000     0.000000000000     0.083180000000     0          
Zr2      Zr     0.500000000000     0.500000000000     0.583180000000     0          
Zr3      Zr     0.000000000000     0.000000000000     0.583180000000     0          
Zr4      Zr     0.500000000000     0.000000000000     0.916820000000     0          
Zr5      Zr     0.500000000000     0.500000000000     0.416820000000     0          
Zr6      Zr     0.000000000000     0.500000000000     0.916820000000     0          
Zr7      Zr     0.083180000000     0.500000000000     0.000000000000     0          
Zr8      Zr     0.583180000000     0.500000000000     0.500000000000     0          
Zr9      Zr     0.583180000000     0.000000000000     0.000000000000     0          
Zr10     Zr     0.916820000000     0.500000000000     0.000000000000     0          
Zr11     Zr     0.916820000000     0.000000000000     0.500000000000     0          
Zr12     Zr     0.416820000000     0.500000000000     0.500000000000     0          
Zr13     Zr     0.000000000000     0.083180000000     0.500000000000     0          
Zr14     Zr     0.000000000000     0.583180000000     0.000000000000     0          
Zr15     Zr     0.500000000000     0.583180000000     0.500000000000     0          
Zr16     Zr     0.500000000000     0.083180000000     0.000000000000     0          
Zr17     Zr     0.000000000000     0.916820000000     0.500000000000     0          
Zr18     Zr     0.000000000000     0.416820000000     0.000000000000     0          
Zr19     Zr     0.000000000000     0.000000000000     0.416820000000     0          
Zr20     Zr     0.000000000000     0.500000000000     0.083180000000     0          
Zr21     Zr     0.500000000000     0.916820000000     0.000000000000     0          
Zr22     Zr     0.500000000000     0.416820000000     0.500000000000     0          
Zr23     Zr     0.083180000000     0.000000000000     0.500000000000     0          
Zr24     Zr     0.416820000000     0.000000000000     0.000000000000     0          
O25      O      0.500000000000     0.935300000000     0.119740000000     0          
O26      O      0.500000000000     0.435300000000     0.619740000000     0          
O27      O      0.000000000000     0.935300000000     0.619740000000     0          
O28      O      0.000000000000     0.435300000000     0.119740000000     0          
H29      H      0.000000000000     0.409200000000     0.189400000000     0          
O30      O      0.500000000000     0.064700000000     0.119740000000     0          
O31      O      0.500000000000     0.564700000000     0.619740000000     0          
H32      H      0.500000000000     0.590800000000     0.689400000000     0          
O33      O      0.000000000000     0.064700000000     0.619740000000     0          
C34      C      0.000000000000     0.187600000000     0.636700000000     0          
H35      H      0.000000000000     0.200100000000     0.606700000000     0          
C36      C      0.000000000000     0.149100000000     0.723900000000     0          
H37      H      0.000000000000     0.136600000000     0.754000000000     0          
C38      C      0.000000000000     0.213200000000     0.676100000000     0          
H39      H      0.000000000000     0.245400000000     0.671300000000     0          
C40      C      0.000000000000     0.196000000000     0.719900000000     0          
C41      C      0.000000000000     0.123000000000     0.684570000000     0          
H42      H      0.000000000000     0.090800000000     0.689400000000     0          
C43      C      0.000000000000     0.229200000000     0.755000000000     0          
O44      O      0.000000000000     0.564700000000     0.119740000000     0          
O45      O      0.500000000000     0.935300000000     0.880260000000     0          
O46      O      0.500000000000     0.435300000000     0.380260000000     0          
O47      O      0.000000000000     0.935300000000     0.380260000000     0          
O48      O      0.000000000000     0.435300000000     0.880260000000     0          
C49      C      0.000000000000     0.312400000000     0.863300000000     0          
H50      H      0.000000000000     0.299900000000     0.893300000000     0          
C51      C      0.000000000000     0.350900000000     0.776100000000     0          
H52      H      0.000000000000     0.363400000000     0.746000000000     0          
C53      C      0.000000000000     0.286800000000     0.823900000000     0          
H54      H      0.000000000000     0.254600000000     0.828700000000     0          
C55      C      0.000000000000     0.304000000000     0.780100000000     0          
C56      C      0.000000000000     0.377000000000     0.815430000000     0          
H57      H      0.000000000000     0.409200000000     0.810600000000     0          
C58      C      0.000000000000     0.270800000000     0.745000000000     0          
O59      O      0.500000000000     0.064700000000     0.880260000000     0          
O60      O      0.500000000000     0.564700000000     0.380260000000     0          
O61      O      0.000000000000     0.064700000000     0.380260000000     0          
O62      O      0.000000000000     0.564700000000     0.880260000000     0          
O63      O      0.119740000000     0.500000000000     0.935300000000     0          
C64      C      0.136700000000     0.500000000000     0.812400000000     0          
H65      H      0.106700000000     0.500000000000     0.799900000000     0          
C66      C      0.223900000000     0.500000000000     0.850900000000     0          
H67      H      0.254000000000     0.500000000000     0.863400000000     0          
C68      C      0.176100000000     0.500000000000     0.786800000000     0          
H69      H      0.171300000000     0.500000000000     0.754600000000     0          
C70      C      0.219900000000     0.500000000000     0.804000000000     0          
C71      C      0.184570000000     0.500000000000     0.877000000000     0          
H72      H      0.189400000000     0.500000000000     0.909200000000     0          
C73      C      0.255000000000     0.500000000000     0.770800000000     0          
O74      O      0.119740000000     0.000000000000     0.435300000000     0          
C75      C      0.136700000000     0.000000000000     0.312400000000     0          
H76      H      0.106700000000     0.000000000000     0.299900000000     0          
C77      C      0.223900000000     0.000000000000     0.350900000000     0          
H78      H      0.254000000000     0.000000000000     0.363400000000     0          
C79      C      0.176100000000     0.000000000000     0.286800000000     0          
H80      H      0.171300000000     0.000000000000     0.254600000000     0          
C81      C      0.219900000000     0.000000000000     0.304000000000     0          
C82      C      0.184570000000     0.000000000000     0.377000000000     0          
H83      H      0.189400000000     0.000000000000     0.409200000000     0          
C84      C      0.255000000000     0.000000000000     0.270800000000     0          
O85      O      0.619740000000     0.500000000000     0.435300000000     0          
H86      H      0.689400000000     0.500000000000     0.409200000000     0          
O87      O      0.619740000000     0.000000000000     0.935300000000     0          
O88      O      0.119740000000     0.500000000000     0.064700000000     0          
O89      O      0.119740000000     0.000000000000     0.564700000000     0          
O90      O      0.619740000000     0.500000000000     0.564700000000     0          
C91      C      0.636700000000     0.500000000000     0.687600000000     0          
H92      H      0.606700000000     0.500000000000     0.700100000000     0          
C93      C      0.723900000000     0.500000000000     0.649100000000     0          
H94      H      0.754000000000     0.500000000000     0.636600000000     0          
C95      C      0.676100000000     0.500000000000     0.713200000000     0          
H96      H      0.671300000000     0.500000000000     0.745400000000     0          
C97      C      0.719900000000     0.500000000000     0.696000000000     0          
C98      C      0.684570000000     0.500000000000     0.623000000000     0          
H99      H      0.689400000000     0.500000000000     0.590800000000     0          
C100     C      0.755000000000     0.500000000000     0.729200000000     0          
O101     O      0.619740000000     0.000000000000     0.064700000000     0          
O102     O      0.880260000000     0.500000000000     0.935300000000     0          
C103     C      0.863300000000     0.500000000000     0.812400000000     0          
H104     H      0.893300000000     0.500000000000     0.799900000000     0          
C105     C      0.776100000000     0.500000000000     0.850900000000     0          
H106     H      0.746000000000     0.500000000000     0.863400000000     0          
C107     C      0.823900000000     0.500000000000     0.786800000000     0          
H108     H      0.828700000000     0.500000000000     0.754600000000     0          
C109     C      0.780100000000     0.500000000000     0.804000000000     0          
C110     C      0.815430000000     0.500000000000     0.877000000000     0          
H111     H      0.810600000000     0.500000000000     0.909200000000     0          
C112     C      0.745000000000     0.500000000000     0.770800000000     0          
O113     O      0.880260000000     0.000000000000     0.435300000000     0          
O114     O      0.380260000000     0.500000000000     0.435300000000     0          
O115     O      0.380260000000     0.000000000000     0.935300000000     0          
O116     O      0.880260000000     0.500000000000     0.064700000000     0          
H117     H      0.810600000000     0.500000000000     0.090800000000     0          
O118     O      0.880260000000     0.000000000000     0.564700000000     0          
O119     O      0.380260000000     0.500000000000     0.564700000000     0          
C120     C      0.363300000000     0.500000000000     0.687600000000     0          
H121     H      0.393300000000     0.500000000000     0.700100000000     0          
C122     C      0.276100000000     0.500000000000     0.649100000000     0          
H123     H      0.246000000000     0.500000000000     0.636600000000     0          
C124     C      0.323900000000     0.500000000000     0.713200000000     0          
H125     H      0.328700000000     0.500000000000     0.745400000000     0          
C126     C      0.280100000000     0.500000000000     0.696000000000     0          
C127     C      0.315430000000     0.500000000000     0.623000000000     0          
H128     H      0.310600000000     0.500000000000     0.590800000000     0          
C129     C      0.245000000000     0.500000000000     0.729200000000     0          
O130     O      0.380260000000     0.000000000000     0.064700000000     0          
C131     C      0.363300000000     0.000000000000     0.187600000000     0          
H132     H      0.393300000000     0.000000000000     0.200100000000     0          
C133     C      0.276100000000     0.000000000000     0.149100000000     0          
H134     H      0.246000000000     0.000000000000     0.136600000000     0          
C135     C      0.323900000000     0.000000000000     0.213200000000     0          
H136     H      0.328700000000     0.000000000000     0.245400000000     0          
C137     C      0.280100000000     0.000000000000     0.196000000000     0          
C138     C      0.315430000000     0.000000000000     0.123000000000     0          
H139     H      0.310600000000     0.000000000000     0.090800000000     0          
C140     C      0.245000000000     0.000000000000     0.229200000000     0          
O141     O      0.935300000000     0.119740000000     0.500000000000     0          
C142     C      0.812400000000     0.136700000000     0.500000000000     0          
H143     H      0.799900000000     0.106700000000     0.500000000000     0          
C144     C      0.850900000000     0.223900000000     0.500000000000     0          
H145     H      0.863400000000     0.254000000000     0.500000000000     0          
C146     C      0.786800000000     0.176100000000     0.500000000000     0          
H147     H      0.754600000000     0.171300000000     0.500000000000     0          
C148     C      0.804000000000     0.219900000000     0.500000000000     0          
C149     C      0.877000000000     0.184570000000     0.500000000000     0          
H150     H      0.909200000000     0.189400000000     0.500000000000     0          
C151     C      0.770800000000     0.255000000000     0.500000000000     0          
O152     O      0.935300000000     0.619740000000     0.000000000000     0          
O153     O      0.435300000000     0.119740000000     0.000000000000     0          
C154     C      0.312400000000     0.136700000000     0.000000000000     0          
H155     H      0.299900000000     0.106700000000     0.000000000000     0          
C156     C      0.350900000000     0.223900000000     0.000000000000     0          
H157     H      0.363400000000     0.254000000000     0.000000000000     0          
C158     C      0.286800000000     0.176100000000     0.000000000000     0          
H159     H      0.254600000000     0.171300000000     0.000000000000     0          
C160     C      0.304000000000     0.219900000000     0.000000000000     0          
C161     C      0.377000000000     0.184570000000     0.000000000000     0          
H162     H      0.409200000000     0.189400000000     0.000000000000     0          
C163     C      0.270800000000     0.255000000000     0.000000000000     0          
O164     O      0.435300000000     0.619740000000     0.500000000000     0          
C165     C      0.312400000000     0.636700000000     0.500000000000     0          
H166     H      0.299900000000     0.606700000000     0.500000000000     0          
C167     C      0.350900000000     0.723900000000     0.500000000000     0          
H168     H      0.363400000000     0.754000000000     0.500000000000     0          
C169     C      0.286800000000     0.676100000000     0.500000000000     0          
H170     H      0.254600000000     0.671300000000     0.500000000000     0          
C171     C      0.304000000000     0.719900000000     0.500000000000     0          
C172     C      0.377000000000     0.684570000000     0.500000000000     0          
H173     H      0.409200000000     0.689400000000     0.500000000000     0          
C174     C      0.270800000000     0.755000000000     0.500000000000     0          
O175     O      0.064700000000     0.119740000000     0.500000000000     0          
C176     C      0.187600000000     0.136700000000     0.500000000000     0          
C177     C      0.149100000000     0.223900000000     0.500000000000     0          
H178     H      0.136600000000     0.254000000000     0.500000000000     0          
C179     C      0.213200000000     0.176100000000     0.500000000000     0          
H180     H      0.245400000000     0.171300000000     0.500000000000     0          
C181     C      0.196000000000     0.219900000000     0.500000000000     0          
C182     C      0.123000000000     0.184570000000     0.500000000000     0          
H183     H      0.090800000000     0.189400000000     0.500000000000     0          
C184     C      0.229200000000     0.255000000000     0.500000000000     0          
O185     O      0.064700000000     0.619740000000     0.000000000000     0          
C186     C      0.187600000000     0.636700000000     0.000000000000     0          
C187     C      0.149100000000     0.723900000000     0.000000000000     0          
H188     H      0.136600000000     0.754000000000     0.000000000000     0          
C189     C      0.213200000000     0.676100000000     0.000000000000     0          
H190     H      0.245400000000     0.671300000000     0.000000000000     0          
C191     C      0.196000000000     0.719900000000     0.000000000000     0          
C192     C      0.123000000000     0.684570000000     0.000000000000     0          
H193     H      0.090800000000     0.689400000000     0.000000000000     0          
C194     C      0.229200000000     0.755000000000     0.000000000000     0          
O195     O      0.564700000000     0.119740000000     0.000000000000     0          
C196     C      0.687600000000     0.136700000000     0.000000000000     0          
H197     H      0.700100000000     0.106700000000     0.000000000000     0          
C198     C      0.649100000000     0.223900000000     0.000000000000     0          
H199     H      0.636600000000     0.254000000000     0.000000000000     0          
C200     C      0.713200000000     0.176100000000     0.000000000000     0          
H201     H      0.745400000000     0.171300000000     0.000000000000     0          
C202     C      0.696000000000     0.219900000000     0.000000000000     0          
C203     C      0.623000000000     0.184570000000     0.000000000000     0          
H204     H      0.590800000000     0.189400000000     0.000000000000     0          
C205     C      0.729200000000     0.255000000000     0.000000000000     0          
O206     O      0.564700000000     0.619740000000     0.500000000000     0          
C207     C      0.687600000000     0.636700000000     0.500000000000     0          
C208     C      0.649100000000     0.723900000000     0.500000000000     0          
H209     H      0.636600000000     0.754000000000     0.500000000000     0          
C210     C      0.713200000000     0.676100000000     0.500000000000     0          
H211     H      0.745400000000     0.671300000000     0.500000000000     0          
C212     C      0.696000000000     0.719900000000     0.500000000000     0          
C213     C      0.623000000000     0.684570000000     0.500000000000     0          
H214     H      0.590800000000     0.689400000000     0.500000000000     0          
C215     C      0.729200000000     0.755000000000     0.500000000000     0          
O216     O      0.935300000000     0.880260000000     0.500000000000     0          
C217     C      0.812400000000     0.863300000000     0.500000000000     0          
H218     H      0.799900000000     0.893300000000     0.500000000000     0          
C219     C      0.850900000000     0.776100000000     0.500000000000     0          
H220     H      0.863400000000     0.746000000000     0.500000000000     0          
C221     C      0.786800000000     0.823900000000     0.500000000000     0          
H222     H      0.754600000000     0.828700000000     0.500000000000     0          
C223     C      0.804000000000     0.780100000000     0.500000000000     0          
C224     C      0.877000000000     0.815430000000     0.500000000000     0          
H225     H      0.909200000000     0.810600000000     0.500000000000     0          
C226     C      0.770800000000     0.745000000000     0.500000000000     0          
O227     O      0.935300000000     0.380260000000     0.000000000000     0          
C228     C      0.812400000000     0.363300000000     0.000000000000     0          
H229     H      0.799900000000     0.393300000000     0.000000000000     0          
C230     C      0.850900000000     0.276100000000     0.000000000000     0          
H231     H      0.863400000000     0.246000000000     0.000000000000     0          
C232     C      0.786800000000     0.323900000000     0.000000000000     0          
C233     C      0.804000000000     0.280100000000     0.000000000000     0          
C234     C      0.877000000000     0.315430000000     0.000000000000     0          
H235     H      0.909200000000     0.310600000000     0.000000000000     0          
C236     C      0.770800000000     0.245000000000     0.000000000000     0          
O237     O      0.435300000000     0.880260000000     0.000000000000     0          
C238     C      0.312400000000     0.863300000000     0.000000000000     0          
H239     H      0.299900000000     0.893300000000     0.000000000000     0          
C240     C      0.350900000000     0.776100000000     0.000000000000     0          
H241     H      0.363400000000     0.746000000000     0.000000000000     0          
C242     C      0.286800000000     0.823900000000     0.000000000000     0          
H243     H      0.254600000000     0.828700000000     0.000000000000     0          
C244     C      0.304000000000     0.780100000000     0.000000000000     0          
C245     C      0.377000000000     0.815430000000     0.000000000000     0          
H246     H      0.409200000000     0.810600000000     0.000000000000     0          
C247     C      0.270800000000     0.745000000000     0.000000000000     0          
O248     O      0.435300000000     0.380260000000     0.500000000000     0          
C249     C      0.312400000000     0.363300000000     0.500000000000     0          
C250     C      0.350900000000     0.276100000000     0.500000000000     0          
H251     H      0.363400000000     0.246000000000     0.500000000000     0          
C252     C      0.286800000000     0.323900000000     0.500000000000     0          
H253     H      0.254600000000     0.328700000000     0.500000000000     0          
C254     C      0.304000000000     0.280100000000     0.500000000000     0          
C255     C      0.377000000000     0.315430000000     0.500000000000     0          
H256     H      0.409200000000     0.310600000000     0.500000000000     0          
C257     C      0.270800000000     0.245000000000     0.500000000000     0          
O258     O      0.064700000000     0.880260000000     0.500000000000     0          
C259     C      0.187600000000     0.863300000000     0.500000000000     0          
H260     H      0.200100000000     0.893300000000     0.500000000000     0          
C261     C      0.149100000000     0.776100000000     0.500000000000     0          
H262     H      0.136600000000     0.746000000000     0.500000000000     0          
C263     C      0.213200000000     0.823900000000     0.500000000000     0          
H264     H      0.245400000000     0.828700000000     0.500000000000     0          
C265     C      0.196000000000     0.780100000000     0.500000000000     0          
C266     C      0.123000000000     0.815430000000     0.500000000000     0          
H267     H      0.090800000000     0.810600000000     0.500000000000     0          
C268     C      0.229200000000     0.745000000000     0.500000000000     0          
O269     O      0.064700000000     0.380260000000     0.000000000000     0          
C270     C      0.187600000000     0.363300000000     0.000000000000     0          
C271     C      0.149100000000     0.276100000000     0.000000000000     0          
H272     H      0.136600000000     0.246000000000     0.000000000000     0          
C273     C      0.213200000000     0.323900000000     0.000000000000     0          
H274     H      0.245400000000     0.328700000000     0.000000000000     0          
C275     C      0.196000000000     0.280100000000     0.000000000000     0          
C276     C      0.123000000000     0.315430000000     0.000000000000     0          
H277     H      0.090800000000     0.310600000000     0.000000000000     0          
C278     C      0.229200000000     0.245000000000     0.000000000000     0          
O279     O      0.564700000000     0.880260000000     0.000000000000     0          
O280     O      0.564700000000     0.380260000000     0.500000000000     0          
C281     C      0.687600000000     0.363300000000     0.500000000000     0          
H282     H      0.700100000000     0.393300000000     0.500000000000     0          
C283     C      0.649100000000     0.276100000000     0.500000000000     0          
H284     H      0.636600000000     0.246000000000     0.500000000000     0          
C285     C      0.713200000000     0.323900000000     0.500000000000     0          
H286     H      0.745400000000     0.328700000000     0.500000000000     0          
C287     C      0.696000000000     0.280100000000     0.500000000000     0          
C288     C      0.623000000000     0.315430000000     0.500000000000     0          
H289     H      0.590800000000     0.310600000000     0.500000000000     0          
C290     C      0.729200000000     0.245000000000     0.500000000000     0          
O291     O      0.935300000000     0.500000000000     0.880260000000     0          
O292     O      0.935300000000     0.000000000000     0.380260000000     0          
C293     C      0.812400000000     0.000000000000     0.363300000000     0          
H294     H      0.799900000000     0.000000000000     0.393300000000     0          
C295     C      0.850900000000     0.000000000000     0.276100000000     0          
H296     H      0.863400000000     0.000000000000     0.246000000000     0          
C297     C      0.786800000000     0.000000000000     0.323900000000     0          
H298     H      0.754600000000     0.000000000000     0.328700000000     0          
C299     C      0.804000000000     0.000000000000     0.280100000000     0          
C300     C      0.877000000000     0.000000000000     0.315430000000     0          
H301     H      0.909200000000     0.000000000000     0.310600000000     0          
C302     C      0.770800000000     0.000000000000     0.245000000000     0          
O303     O      0.435300000000     0.500000000000     0.380260000000     0          
C304     C      0.312400000000     0.500000000000     0.363300000000     0          
H305     H      0.299900000000     0.500000000000     0.393300000000     0          
C306     C      0.350900000000     0.500000000000     0.276100000000     0          
H307     H      0.363400000000     0.500000000000     0.246000000000     0          
C308     C      0.286800000000     0.500000000000     0.323900000000     0          
H309     H      0.254600000000     0.500000000000     0.328700000000     0          
C310     C      0.304000000000     0.500000000000     0.280100000000     0          
C311     C      0.377000000000     0.500000000000     0.315430000000     0          
H312     H      0.409200000000     0.500000000000     0.310600000000     0          
C313     C      0.270800000000     0.500000000000     0.245000000000     0          
O314     O      0.435300000000     0.000000000000     0.880260000000     0          
C315     C      0.312400000000     0.000000000000     0.863300000000     0          
H316     H      0.299900000000     0.000000000000     0.893300000000     0          
C317     C      0.350900000000     0.000000000000     0.776100000000     0          
H318     H      0.363400000000     0.000000000000     0.746000000000     0          
C319     C      0.286800000000     0.000000000000     0.823900000000     0          
H320     H      0.254600000000     0.000000000000     0.828700000000     0          
C321     C      0.304000000000     0.000000000000     0.780100000000     0          
C322     C      0.377000000000     0.000000000000     0.815430000000     0          
H323     H      0.409200000000     0.000000000000     0.810600000000     0          
C324     C      0.270800000000     0.000000000000     0.745000000000     0          
O325     O      0.064700000000     0.500000000000     0.880260000000     0          
O326     O      0.064700000000     0.000000000000     0.380260000000     0          
O327     O      0.564700000000     0.500000000000     0.380260000000     0          
C328     C      0.687600000000     0.500000000000     0.363300000000     0          
C329     C      0.649100000000     0.500000000000     0.276100000000     0          
H330     H      0.636600000000     0.500000000000     0.246000000000     0          
C331     C      0.713200000000     0.500000000000     0.323900000000     0          
H332     H      0.745400000000     0.500000000000     0.328700000000     0          
C333     C      0.696000000000     0.500000000000     0.280100000000     0          
C334     C      0.623000000000     0.500000000000     0.315430000000     0          
H335     H      0.590800000000     0.500000000000     0.310600000000     0          
C336     C      0.729200000000     0.500000000000     0.245000000000     0          
O337     O      0.564700000000     0.000000000000     0.880260000000     0          
C338     C      0.687600000000     0.000000000000     0.863300000000     0          
H339     H      0.700100000000     0.000000000000     0.893300000000     0          
C340     C      0.649100000000     0.000000000000     0.776100000000     0          
H341     H      0.636600000000     0.000000000000     0.746000000000     0          
C342     C      0.713200000000     0.000000000000     0.823900000000     0          
H343     H      0.745400000000     0.000000000000     0.828700000000     0          
C344     C      0.696000000000     0.000000000000     0.780100000000     0          
C345     C      0.623000000000     0.000000000000     0.815430000000     0          
H346     H      0.590800000000     0.000000000000     0.810600000000     0          
C347     C      0.729200000000     0.000000000000     0.745000000000     0          
O348     O      0.935300000000     0.500000000000     0.119740000000     0          
C349     C      0.812400000000     0.500000000000     0.136700000000     0          
C350     C      0.850900000000     0.500000000000     0.223900000000     0          
H351     H      0.863400000000     0.500000000000     0.254000000000     0          
C352     C      0.786800000000     0.500000000000     0.176100000000     0          
H353     H      0.754600000000     0.500000000000     0.171300000000     0          
C354     C      0.804000000000     0.500000000000     0.219900000000     0          
C355     C      0.877000000000     0.500000000000     0.184570000000     0          
H356     H      0.909200000000     0.500000000000     0.189400000000     0          
C357     C      0.770800000000     0.500000000000     0.255000000000     0          
O358     O      0.935300000000     0.000000000000     0.619740000000     0          
C359     C      0.812400000000     0.000000000000     0.636700000000     0          
H360     H      0.799900000000     0.000000000000     0.606700000000     0          
C361     C      0.850900000000     0.000000000000     0.723900000000     0          
H362     H      0.863400000000     0.000000000000     0.754000000000     0          
C363     C      0.786800000000     0.000000000000     0.676100000000     0          
H364     H      0.754600000000     0.000000000000     0.671300000000     0          
C365     C      0.804000000000     0.000000000000     0.719900000000     0          
C366     C      0.877000000000     0.000000000000     0.684570000000     0          
H367     H      0.909200000000     0.000000000000     0.689400000000     0          
C368     C      0.770800000000     0.000000000000     0.755000000000     0          
O369     O      0.435300000000     0.500000000000     0.619740000000     0          
O370     O      0.435300000000     0.000000000000     0.119740000000     0          
O371     O      0.064700000000     0.500000000000     0.119740000000     0          
C372     C      0.187600000000     0.500000000000     0.136700000000     0          
H373     H      0.200100000000     0.500000000000     0.106700000000     0          
C374     C      0.149100000000     0.500000000000     0.223900000000     0          
H375     H      0.136600000000     0.500000000000     0.254000000000     0          
C376     C      0.213200000000     0.500000000000     0.176100000000     0          
H377     H      0.245400000000     0.500000000000     0.171300000000     0          
C378     C      0.196000000000     0.500000000000     0.219900000000     0          
C379     C      0.123000000000     0.500000000000     0.184570000000     0          
H380     H      0.090800000000     0.500000000000     0.189400000000     0          
C381     C      0.229200000000     0.500000000000     0.255000000000     0          
O382     O      0.064700000000     0.000000000000     0.619740000000     0          
C383     C      0.187600000000     0.000000000000     0.636700000000     0          
H384     H      0.200100000000     0.000000000000     0.606700000000     0          
C385     C      0.149100000000     0.000000000000     0.723900000000     0          
H386     H      0.136600000000     0.000000000000     0.754000000000     0          
C387     C      0.213200000000     0.000000000000     0.676100000000     0          
H388     H      0.245400000000     0.000000000000     0.671300000000     0          
C389     C      0.196000000000     0.000000000000     0.719900000000     0          
C390     C      0.123000000000     0.000000000000     0.684570000000     0          
H391     H      0.090800000000     0.000000000000     0.689400000000     0          
C392     C      0.229200000000     0.000000000000     0.755000000000     0          
O393     O      0.564700000000     0.500000000000     0.619740000000     0          
O394     O      0.564700000000     0.000000000000     0.119740000000     0          
C395     C      0.687600000000     0.000000000000     0.136700000000     0          
H396     H      0.700100000000     0.000000000000     0.106700000000     0          
C397     C      0.649100000000     0.000000000000     0.223900000000     0          
H398     H      0.636600000000     0.000000000000     0.254000000000     0          
C399     C      0.713200000000     0.000000000000     0.176100000000     0          
H400     H      0.745400000000     0.000000000000     0.171300000000     0          
C401     C      0.696000000000     0.000000000000     0.219900000000     0          
C402     C      0.623000000000     0.000000000000     0.184570000000     0          
H403     H      0.590800000000     0.000000000000     0.189400000000     0          
C404     C      0.729200000000     0.000000000000     0.255000000000     0          
O405     O      0.500000000000     0.119740000000     0.064700000000     0          
C406     C      0.500000000000     0.136700000000     0.187600000000     0          
H407     H      0.500000000000     0.106700000000     0.200100000000     0          
C408     C      0.500000000000     0.223900000000     0.149100000000     0          
H409     H      0.500000000000     0.254000000000     0.136600000000     0          
C410     C      0.500000000000     0.176100000000     0.213200000000     0          
H411     H      0.500000000000     0.171300000000     0.245400000000     0          
C412     C      0.500000000000     0.219900000000     0.196000000000     0          
C413     C      0.500000000000     0.184570000000     0.123000000000     0          
H414     H      0.500000000000     0.189400000000     0.090800000000     0          
C415     C      0.500000000000     0.255000000000     0.229200000000     0          
O416     O      0.500000000000     0.619740000000     0.564700000000     0          
C417     C      0.500000000000     0.636700000000     0.687600000000     0          
C418     C      0.500000000000     0.723900000000     0.649100000000     0          
H419     H      0.500000000000     0.754000000000     0.636600000000     0          
C420     C      0.500000000000     0.676100000000     0.713200000000     0          
H421     H      0.500000000000     0.671300000000     0.745400000000     0          
C422     C      0.500000000000     0.719900000000     0.696000000000     0          
C423     C      0.500000000000     0.684570000000     0.623000000000     0          
H424     H      0.500000000000     0.689400000000     0.590800000000     0          
C425     C      0.500000000000     0.755000000000     0.729200000000     0          
O426     O      0.000000000000     0.119740000000     0.564700000000     0          
O427     O      0.000000000000     0.619740000000     0.064700000000     0          
C428     C      0.000000000000     0.636700000000     0.187600000000     0          
H429     H      0.000000000000     0.606700000000     0.200100000000     0          
C430     C      0.000000000000     0.723900000000     0.149100000000     0          
H431     H      0.000000000000     0.754000000000     0.136600000000     0          
C432     C      0.000000000000     0.676100000000     0.213200000000     0          
H433     H      0.000000000000     0.671300000000     0.245400000000     0          
C434     C      0.000000000000     0.719900000000     0.196000000000     0          
C435     C      0.000000000000     0.684570000000     0.123000000000     0          
H436     H      0.000000000000     0.689400000000     0.090800000000     0          
C437     C      0.000000000000     0.755000000000     0.229200000000     0          
O438     O      0.500000000000     0.119740000000     0.935300000000     0          
C439     C      0.500000000000     0.136700000000     0.812400000000     0          
H440     H      0.500000000000     0.106700000000     0.799900000000     0          
C441     C      0.500000000000     0.223900000000     0.850900000000     0          
H442     H      0.500000000000     0.254000000000     0.863400000000     0          
C443     C      0.500000000000     0.176100000000     0.786800000000     0          
H444     H      0.500000000000     0.171300000000     0.754600000000     0          
C445     C      0.500000000000     0.219900000000     0.804000000000     0          
C446     C      0.500000000000     0.184570000000     0.877000000000     0          
H447     H      0.500000000000     0.189400000000     0.909200000000     0          
C448     C      0.500000000000     0.255000000000     0.770800000000     0          
O449     O      0.500000000000     0.619740000000     0.435300000000     0          
C450     C      0.500000000000     0.636700000000     0.312400000000     0          
H451     H      0.500000000000     0.606700000000     0.299900000000     0          
C452     C      0.500000000000     0.723900000000     0.350900000000     0          
H453     H      0.500000000000     0.754000000000     0.363400000000     0          
C454     C      0.500000000000     0.676100000000     0.286800000000     0          
H455     H      0.500000000000     0.671300000000     0.254600000000     0          
C456     C      0.500000000000     0.719900000000     0.304000000000     0          
C457     C      0.500000000000     0.684570000000     0.377000000000     0          
H458     H      0.500000000000     0.689400000000     0.409200000000     0          
C459     C      0.500000000000     0.755000000000     0.270800000000     0          
O460     O      0.000000000000     0.119740000000     0.435300000000     0          
C461     C      0.000000000000     0.136700000000     0.312400000000     0          
H462     H      0.000000000000     0.106700000000     0.299900000000     0          
C463     C      0.000000000000     0.223900000000     0.350900000000     0          
H464     H      0.000000000000     0.254000000000     0.363400000000     0          
C465     C      0.000000000000     0.176100000000     0.286800000000     0          
H466     H      0.000000000000     0.171300000000     0.254600000000     0          
C467     C      0.000000000000     0.219900000000     0.304000000000     0          
C468     C      0.000000000000     0.184570000000     0.377000000000     0          
H469     H      0.000000000000     0.189400000000     0.409200000000     0          
C470     C      0.000000000000     0.255000000000     0.270800000000     0          
O471     O      0.000000000000     0.619740000000     0.935300000000     0          
C472     C      0.000000000000     0.636700000000     0.812400000000     0          
H473     H      0.000000000000     0.606700000000     0.799900000000     0          
C474     C      0.000000000000     0.723900000000     0.850900000000     0          
H475     H      0.000000000000     0.754000000000     0.863400000000     0          
C476     C      0.000000000000     0.676100000000     0.786800000000     0          
H477     H      0.000000000000     0.671300000000     0.754600000000     0          
C478     C      0.000000000000     0.719900000000     0.804000000000     0          
C479     C      0.000000000000     0.684570000000     0.877000000000     0          
H480     H      0.000000000000     0.689400000000     0.909200000000     0          
C481     C      0.000000000000     0.755000000000     0.770800000000     0          
O482     O      0.500000000000     0.880260000000     0.064700000000     0          
C483     C      0.500000000000     0.863300000000     0.187600000000     0          
H484     H      0.500000000000     0.893300000000     0.200100000000     0          
C485     C      0.500000000000     0.776100000000     0.149100000000     0          
H486     H      0.500000000000     0.746000000000     0.136600000000     0          
C487     C      0.500000000000     0.823900000000     0.213200000000     0          
H488     H      0.500000000000     0.828700000000     0.245400000000     0          
C489     C      0.500000000000     0.780100000000     0.196000000000     0          
C490     C      0.500000000000     0.815430000000     0.123000000000     0          
H491     H      0.500000000000     0.810600000000     0.090800000000     0          
C492     C      0.500000000000     0.745000000000     0.229200000000     0          
O493     O      0.500000000000     0.380260000000     0.564700000000     0          
C494     C      0.500000000000     0.363300000000     0.687600000000     0          
H495     H      0.500000000000     0.393300000000     0.700100000000     0          
C496     C      0.500000000000     0.276100000000     0.649100000000     0          
H497     H      0.500000000000     0.246000000000     0.636600000000     0          
C498     C      0.500000000000     0.323900000000     0.713200000000     0          
H499     H      0.500000000000     0.328700000000     0.745400000000     0          
C500     C      0.500000000000     0.280100000000     0.696000000000     0          
C501     C      0.500000000000     0.315430000000     0.623000000000     0          
H502     H      0.500000000000     0.310600000000     0.590800000000     0          
C503     C      0.500000000000     0.245000000000     0.729200000000     0          
O504     O      0.000000000000     0.880260000000     0.564700000000     0          
C505     C      0.000000000000     0.863300000000     0.687600000000     0          
H506     H      0.000000000000     0.893300000000     0.700100000000     0          
C507     C      0.000000000000     0.776100000000     0.649100000000     0          
H508     H      0.000000000000     0.746000000000     0.636600000000     0          
C509     C      0.000000000000     0.823900000000     0.713200000000     0          
H510     H      0.000000000000     0.828700000000     0.745400000000     0          
C511     C      0.000000000000     0.780100000000     0.696000000000     0          
C512     C      0.000000000000     0.815430000000     0.623000000000     0          
H513     H      0.000000000000     0.810600000000     0.590800000000     0          
C514     C      0.000000000000     0.745000000000     0.729200000000     0          
O515     O      0.000000000000     0.380260000000     0.064700000000     0          
C516     C      0.000000000000     0.363300000000     0.187600000000     0          
C517     C      0.000000000000     0.276100000000     0.149100000000     0          
H518     H      0.000000000000     0.246000000000     0.136600000000     0          
C519     C      0.000000000000     0.323900000000     0.213200000000     0          
H520     H      0.000000000000     0.328700000000     0.245400000000     0          
C521     C      0.000000000000     0.280100000000     0.196000000000     0          
C522     C      0.000000000000     0.315430000000     0.123000000000     0          
H523     H      0.000000000000     0.310600000000     0.090800000000     0          
C524     C      0.000000000000     0.245000000000     0.229200000000     0          
O525     O      0.500000000000     0.880260000000     0.935300000000     0          
C526     C      0.500000000000     0.863300000000     0.812400000000     0          
H527     H      0.500000000000     0.893300000000     0.799900000000     0          
C528     C      0.500000000000     0.776100000000     0.850900000000     0          
H529     H      0.500000000000     0.746000000000     0.863400000000     0          
C530     C      0.500000000000     0.823900000000     0.786800000000     0          
H531     H      0.500000000000     0.828700000000     0.754600000000     0          
C532     C      0.500000000000     0.780100000000     0.804000000000     0          
C533     C      0.500000000000     0.815430000000     0.877000000000     0          
H534     H      0.500000000000     0.810600000000     0.909200000000     0          
C535     C      0.500000000000     0.745000000000     0.770800000000     0          
O536     O      0.500000000000     0.380260000000     0.435300000000     0          
C537     C      0.500000000000     0.363300000000     0.312400000000     0          
H538     H      0.500000000000     0.393300000000     0.299900000000     0          
C539     C      0.500000000000     0.276100000000     0.350900000000     0          
H540     H      0.500000000000     0.246000000000     0.363400000000     0          
C541     C      0.500000000000     0.323900000000     0.286800000000     0          
H542     H      0.500000000000     0.328700000000     0.254600000000     0          
C543     C      0.500000000000     0.280100000000     0.304000000000     0          
C544     C      0.500000000000     0.315430000000     0.377000000000     0          
H545     H      0.500000000000     0.310600000000     0.409200000000     0          
C546     C      0.500000000000     0.245000000000     0.270800000000     0          
O547     O      0.000000000000     0.880260000000     0.435300000000     0          
C548     C      0.000000000000     0.863300000000     0.312400000000     0          
H549     H      0.000000000000     0.893300000000     0.299900000000     0          
C550     C      0.000000000000     0.776100000000     0.350900000000     0          
H551     H      0.000000000000     0.746000000000     0.363400000000     0          
C552     C      0.000000000000     0.823900000000     0.286800000000     0          
H553     H      0.000000000000     0.828700000000     0.254600000000     0          
C554     C      0.000000000000     0.780100000000     0.304000000000     0          
C555     C      0.000000000000     0.815430000000     0.377000000000     0          
H556     H      0.000000000000     0.810600000000     0.409200000000     0          
C557     C      0.000000000000     0.745000000000     0.270800000000     0          
O558     O      0.000000000000     0.380260000000     0.935300000000     0          
O559     O      0.119740000000     0.935300000000     0.500000000000     0          
O560     O      0.119740000000     0.435300000000     0.000000000000     0          
O561     O      0.619740000000     0.935300000000     0.000000000000     0          
C562     C      0.636700000000     0.812400000000     0.000000000000     0          
H563     H      0.606700000000     0.799900000000     0.000000000000     0          
C564     C      0.723900000000     0.850900000000     0.000000000000     0          
H565     H      0.754000000000     0.863400000000     0.000000000000     0          
C566     C      0.676100000000     0.786800000000     0.000000000000     0          
H567     H      0.671300000000     0.754600000000     0.000000000000     0          
C568     C      0.719900000000     0.804000000000     0.000000000000     0          
C569     C      0.684570000000     0.877000000000     0.000000000000     0          
H570     H      0.689400000000     0.909200000000     0.000000000000     0          
C571     C      0.755000000000     0.770800000000     0.000000000000     0          
O572     O      0.619740000000     0.435300000000     0.500000000000     0          
O573     O      0.119740000000     0.064700000000     0.500000000000     0          
O574     O      0.119740000000     0.564700000000     0.000000000000     0          
O575     O      0.619740000000     0.064700000000     0.000000000000     0          
O576     O      0.619740000000     0.564700000000     0.500000000000     0          
O577     O      0.880260000000     0.935300000000     0.500000000000     0          
O578     O      0.880260000000     0.435300000000     0.000000000000     0          
O579     O      0.380260000000     0.935300000000     0.000000000000     0          
O580     O      0.380260000000     0.435300000000     0.500000000000     0          
O581     O      0.880260000000     0.064700000000     0.500000000000     0          
O582     O      0.880260000000     0.564700000000     0.000000000000     0          
C583     C      0.863300000000     0.687600000000     0.000000000000     0          
H584     H      0.893300000000     0.700100000000     0.000000000000     0          
C585     C      0.776100000000     0.649100000000     0.000000000000     0          
H586     H      0.746000000000     0.636600000000     0.000000000000     0          
C587     C      0.823900000000     0.713200000000     0.000000000000     0          
H588     H      0.828700000000     0.745400000000     0.000000000000     0          
C589     C      0.780100000000     0.696000000000     0.000000000000     0          
C590     C      0.815430000000     0.623000000000     0.000000000000     0          
H591     H      0.810600000000     0.590800000000     0.000000000000     0          
C592     C      0.745000000000     0.729200000000     0.000000000000     0          
O593     O      0.380260000000     0.064700000000     0.000000000000     0          
O594     O      0.380260000000     0.564700000000     0.500000000000     0          
C595     C      0.500000000000     0.894090000000     0.105910000000     0          
C596     C      0.500000000000     0.859160000000     0.140840000000     0          
C597     C      0.500000000000     0.394090000000     0.605910000000     0          
C598     C      0.500000000000     0.359160000000     0.640840000000     0          
C599     C      0.000000000000     0.894090000000     0.605910000000     0          
C600     C      0.000000000000     0.859160000000     0.640840000000     0          
C601     C      0.000000000000     0.394090000000     0.105910000000     0          
C602     C      0.000000000000     0.359160000000     0.140840000000     0          
C603     C      0.500000000000     0.105910000000     0.105910000000     0          
C604     C      0.500000000000     0.140840000000     0.140840000000     0          
C605     C      0.500000000000     0.605910000000     0.605910000000     0          
C606     C      0.500000000000     0.640840000000     0.640840000000     0          
C607     C      0.000000000000     0.105910000000     0.605910000000     0          
C608     C      0.000000000000     0.140840000000     0.640840000000     0          
C609     C      0.000000000000     0.605910000000     0.105910000000     0          
C610     C      0.000000000000     0.640840000000     0.140840000000     0          
C611     C      0.500000000000     0.894090000000     0.894090000000     0          
C612     C      0.500000000000     0.859160000000     0.859160000000     0          
C613     C      0.500000000000     0.394090000000     0.394090000000     0          
C614     C      0.500000000000     0.359160000000     0.359160000000     0          
C615     C      0.000000000000     0.894090000000     0.394090000000     0          
C616     C      0.000000000000     0.859160000000     0.359160000000     0          
C617     C      0.000000000000     0.394090000000     0.894090000000     0          
C618     C      0.000000000000     0.359160000000     0.859160000000     0          
C619     C      0.500000000000     0.105910000000     0.894090000000     0          
C620     C      0.500000000000     0.140840000000     0.859160000000     0          
C621     C      0.500000000000     0.605910000000     0.394090000000     0          
C622     C      0.500000000000     0.640840000000     0.359160000000     0          
C623     C      0.000000000000     0.105910000000     0.394090000000     0          
C624     C      0.000000000000     0.140840000000     0.359160000000     0          
C625     C      0.000000000000     0.605910000000     0.894090000000     0          
C626     C      0.000000000000     0.640840000000     0.859160000000     0          
C627     C      0.105910000000     0.500000000000     0.894090000000     0          
C628     C      0.140840000000     0.500000000000     0.859160000000     0          
C629     C      0.105910000000     0.000000000000     0.394090000000     0          
C630     C      0.140840000000     0.000000000000     0.359160000000     0          
C631     C      0.605910000000     0.500000000000     0.394090000000     0          
C632     C      0.640840000000     0.500000000000     0.359160000000     0          
C633     C      0.605910000000     0.000000000000     0.894090000000     0          
C634     C      0.640840000000     0.000000000000     0.859160000000     0          
C635     C      0.105910000000     0.500000000000     0.105910000000     0          
C636     C      0.140840000000     0.500000000000     0.140840000000     0          
C637     C      0.105910000000     0.000000000000     0.605910000000     0          
C638     C      0.140840000000     0.000000000000     0.640840000000     0          
C639     C      0.605910000000     0.500000000000     0.605910000000     0          
C640     C      0.640840000000     0.500000000000     0.640840000000     0          
C641     C      0.605910000000     0.000000000000     0.105910000000     0          
C642     C      0.640840000000     0.000000000000     0.140840000000     0          
C643     C      0.894090000000     0.500000000000     0.894090000000     0          
C644     C      0.859160000000     0.500000000000     0.859160000000     0          
C645     C      0.894090000000     0.000000000000     0.394090000000     0          
C646     C      0.859160000000     0.000000000000     0.359160000000     0          
C647     C      0.394090000000     0.500000000000     0.394090000000     0          
C648     C      0.359160000000     0.500000000000     0.359160000000     0          
C649     C      0.394090000000     0.000000000000     0.894090000000     0          
C650     C      0.359160000000     0.000000000000     0.859160000000     0          
C651     C      0.894090000000     0.500000000000     0.105910000000     0          
C652     C      0.859160000000     0.500000000000     0.140840000000     0          
C653     C      0.894090000000     0.000000000000     0.605910000000     0          
C654     C      0.859160000000     0.000000000000     0.640840000000     0          
C655     C      0.394090000000     0.500000000000     0.605910000000     0          
C656     C      0.359160000000     0.500000000000     0.640840000000     0          
C657     C      0.394090000000     0.000000000000     0.105910000000     0          
C658     C      0.359160000000     0.000000000000     0.140840000000     0          
C659     C      0.894090000000     0.105910000000     0.500000000000     0          
C660     C      0.859160000000     0.140840000000     0.500000000000     0          
C661     C      0.894090000000     0.605910000000     0.000000000000     0          
C662     C      0.859160000000     0.640840000000     0.000000000000     0          
C663     C      0.394090000000     0.105910000000     0.000000000000     0          
C664     C      0.359160000000     0.140840000000     0.000000000000     0          
C665     C      0.394090000000     0.605910000000     0.500000000000     0          
C666     C      0.359160000000     0.640840000000     0.500000000000     0          
C667     C      0.105910000000     0.105910000000     0.500000000000     0          
C668     C      0.140840000000     0.140840000000     0.500000000000     0          
C669     C      0.105910000000     0.605910000000     0.000000000000     0          
C670     C      0.140840000000     0.640840000000     0.000000000000     0          
C671     C      0.605910000000     0.105910000000     0.000000000000     0          
C672     C      0.640840000000     0.140840000000     0.000000000000     0          
C673     C      0.605910000000     0.605910000000     0.500000000000     0          
C674     C      0.640840000000     0.640840000000     0.500000000000     0          
C675     C      0.894090000000     0.894090000000     0.500000000000     0          
C676     C      0.859160000000     0.859160000000     0.500000000000     0          
C677     C      0.894090000000     0.394090000000     0.000000000000     0          
C678     C      0.859160000000     0.359160000000     0.000000000000     0          
C679     C      0.394090000000     0.894090000000     0.000000000000     0          
C680     C      0.359160000000     0.859160000000     0.000000000000     0          
C681     C      0.394090000000     0.394090000000     0.500000000000     0          
C682     C      0.359160000000     0.359160000000     0.500000000000     0          
C683     C      0.105910000000     0.894090000000     0.500000000000     0          
C684     C      0.140840000000     0.859160000000     0.500000000000     0          
C685     C      0.105910000000     0.394090000000     0.000000000000     0          
C686     C      0.140840000000     0.359160000000     0.000000000000     0          
C687     C      0.605910000000     0.894090000000     0.000000000000     0          
C688     C      0.640840000000     0.859160000000     0.000000000000     0          
C689     C      0.605910000000     0.394090000000     0.500000000000     0          
C690     C      0.640840000000     0.359160000000     0.500000000000     0          
O691     O      0.459480000000     0.040520000000     0.040520000000     0          
O692     O      0.459480000000     0.540520000000     0.540520000000     0          
O693     O      0.540520000000     0.959480000000     0.040520000000     0          
O694     O      0.540520000000     0.459480000000     0.540520000000     0          
O695     O      0.040520000000     0.459480000000     0.040520000000     0          
O696     O      0.540520000000     0.040520000000     0.959480000000     0          
O697     O      0.540520000000     0.540520000000     0.459480000000     0          
O698     O      0.040520000000     0.040520000000     0.459480000000     0          
O699     O      0.459480000000     0.959480000000     0.959480000000     0          
O700     O      0.459480000000     0.459480000000     0.459480000000     0          
O701     O      0.040520000000     0.540520000000     0.959480000000     0          
O702     O      0.959480000000     0.540520000000     0.040520000000     0          
O703     O      0.959480000000     0.459480000000     0.959480000000     0          
O704     O      0.959480000000     0.040520000000     0.540520000000     0          
O705     O      0.040520000000     0.959480000000     0.540520000000     0          
O706     O      0.959480000000     0.959480000000     0.459480000000     0          
O707     O      0.040520000000     0.459480000000     0.959480000000     0          
O708     O      0.959480000000     0.540520000000     0.959480000000     0          
O709     O      0.959480000000     0.040520000000     0.459480000000     0          
O710     O      0.459480000000     0.040520000000     0.959480000000     0          
O711     O      0.040520000000     0.540520000000     0.040520000000     0          
O712     O      0.959480000000     0.459480000000     0.040520000000     0          
O713     O      0.459480000000     0.459480000000     0.540520000000     0          
O714     O      0.459480000000     0.540520000000     0.459480000000     0          
O715     O      0.540520000000     0.040520000000     0.040520000000     0          
O716     O      0.540520000000     0.540520000000     0.540520000000     0          
O717     O      0.540520000000     0.959480000000     0.959480000000     0          
O718     O      0.540520000000     0.459480000000     0.459480000000     0          
O719     O      0.040520000000     0.959480000000     0.459480000000     0          
O720     O      0.459480000000     0.959480000000     0.040520000000     0          
O721     O      0.040520000000     0.040520000000     0.540520000000     0          
O722     O      0.959480000000     0.959480000000     0.540520000000     0          
H723     H      0.000000000000     0.781500000000     0.781500000000     0          
H724     H      0.500000000000     0.218500000000     0.281500000000     0          
H725     H      0.500000000000     0.781500000000     0.718500000000     0          
H726     H      0.500000000000     0.218500000000     0.718500000000     0          
H727     H      0.281500000000     0.500000000000     0.781500000000     0          
H728     H      0.281500000000     0.500000000000     0.218500000000     0          
H729     H      0.281500000000     0.000000000000     0.718500000000     0          
H730     H      0.718500000000     0.500000000000     0.781500000000     0          
H731     H      0.718500000000     0.500000000000     0.218500000000     0          
H732     H      0.781500000000     0.281500000000     0.500000000000     0          
H733     H      0.781500000000     0.500000000000     0.718500000000     0          
H734     H      0.218500000000     0.500000000000     0.718500000000     0          
H735     H      0.781500000000     0.500000000000     0.281500000000     0          
H736     H      0.218500000000     0.500000000000     0.281500000000     0          
H737     H      0.218500000000     0.000000000000     0.781500000000     0          
H738     H      0.500000000000     0.281500000000     0.218500000000     0          
H739     H      0.500000000000     0.281500000000     0.781500000000     0          
H740     H      0.000000000000     0.718500000000     0.718500000000     0          
H741     H      0.500000000000     0.718500000000     0.781500000000     0          
H742     H      0.718500000000     0.218500000000     0.500000000000     0          
H743     H      0.781500000000     0.718500000000     0.500000000000     0          
H744     H      0.218500000000     0.718500000000     0.500000000000     0          
H745     H      0.281500000000     0.781500000000     0.500000000000     0          
H746     H      0.718500000000     0.781500000000     0.500000000000     0          
H747     H      0.781500000000     0.781500000000     0.000000000000     0          
H748     H      0.218500000000     0.781500000000     0.000000000000     0          
H749     H      0.281500000000     0.718500000000     0.000000000000     0          
H750     H      0.718500000000     0.718500000000     0.000000000000     0          
H751     H      0.218500000000     0.281500000000     0.500000000000     0          
H752     H      0.281500000000     0.218500000000     0.500000000000     0          
H753     H      0.781500000000     0.218500000000     0.000000000000     0          
H754     H      0.218500000000     0.218500000000     0.000000000000     0          
H755     H      0.281500000000     0.281500000000     0.000000000000     0          
H756     H      0.718500000000     0.281500000000     0.000000000000     0          
H757     H      0.500000000000     0.781500000000     0.281500000000     0          
H758     H      0.500000000000     0.718500000000     0.218500000000     0          
H759     H      0.000000000000     0.781500000000     0.218500000000     0          
H760     H      0.000000000000     0.218500000000     0.218500000000     0          
H761     H      0.000000000000     0.281500000000     0.281500000000     0          
H762     H      0.000000000000     0.718500000000     0.281500000000     0          
H763     H      0.000000000000     0.218500000000     0.781500000000     0          
H764     H      0.000000000000     0.281500000000     0.718500000000     0          
H765     H      0.773600000000     0.000900000000     0.209820000000     0          
H766     H      0.727000000000     0.999650000000     0.290210000000     0          
H767     H      0.715890000000     0.003940000000     0.713300000000     0          
H768     H      0.783900000000     0.996060000000     0.786760000000     0          
H769     H      0.288540000000     0.002150000000     0.277590000000     0          
H770     H      0.212460000000     0.987920000000     0.215870000000     0          
H771     H      0.703860000000     0.601730000000     0.500000000000     0          
H772     H      0.205100000000     0.602330000000     0.000000000000     0          
H773     H      0.294900000000     0.397670000000     0.500000000000     0          
H774     H      0.748280000000     0.325930000000     0.000000000000     0          
H775     H      0.203860000000     0.398270000000     0.000000000000     0          
H776     H      0.203860000000     0.101730000000     0.500000000000     0          


