data_REBPIA

_audit_creation_method RASPA-1.0
_audit_creation_date 2020-11-2
_audit_author_name 'Rocio Bueno-Perez'

_cell_length_a    20.8507
_cell_length_b    20.8507
_cell_length_c    20.8507
_cell_angle_alpha 90
_cell_angle_beta  90
_cell_angle_gamma 90
_cell_volume      9064.88

_symmetry_cell_setting          triclinic
_symmetry_space_group_name_Hall 'P 1'
_symmetry_space_group_name_H-M  'P 1'
_symmetry_Int_Tables_number     1

_symmetry_equiv_pos_as_xyz 'x,y,z'

loop_
_atom_site_label
_atom_site_type_symbol
_atom_site_fract_x
_atom_site_fract_y
_atom_site_fract_z
_atom_site_charge
C1       C      0.260300000000     0.028000000000     0.189000000000     0          
C2       C      0.260300000000     0.528000000000     0.689000000000     0          
C3       C      0.272400000000     0.556000000000     0.629600000000     0          
C4       C      0.331700000000     0.584000000000     0.617400000000     0          
H5       H      0.233700000000     0.555970000000     0.590970000000     0          
C6       C      0.239700000000     0.472000000000     0.189000000000     0          
C7       C      0.739700000000     0.028000000000     0.811000000000     0          
C8       C      0.739700000000     0.528000000000     0.311000000000     0          
C9       C      0.727600000000     0.556000000000     0.370400000000     0          
C10      C      0.668300000000     0.584000000000     0.382600000000     0          
H11      H      0.766300000000     0.555970000000     0.409030000000     0          
C12      C      0.260300000000     0.972000000000     0.811000000000     0          
C13      C      0.272400000000     0.944000000000     0.870400000000     0          
C14      C      0.331700000000     0.916000000000     0.882600000000     0          
H15      H      0.233700000000     0.944030000000     0.909030000000     0          
C16      C      0.760300000000     0.972000000000     0.311000000000     0          
C17      C      0.760300000000     0.472000000000     0.811000000000     0          
C18      C      0.772400000000     0.444000000000     0.870400000000     0          
C19      C      0.831700000000     0.416000000000     0.882600000000     0          
H20      H      0.733700000000     0.444030000000     0.909030000000     0          
C21      C      0.189000000000     0.739700000000     0.972000000000     0          
C22      C      0.689000000000     0.739700000000     0.472000000000     0          
C23      C      0.629600000000     0.727600000000     0.444000000000     0          
C24      C      0.617400000000     0.668300000000     0.416000000000     0          
H25      H      0.590970000000     0.766300000000     0.444030000000     0          
C26      C      0.811000000000     0.739700000000     0.028000000000     0          
C27      C      0.811000000000     0.239700000000     0.528000000000     0          
C28      C      0.870400000000     0.227600000000     0.556000000000     0          
C29      C      0.882600000000     0.168300000000     0.584000000000     0          
H30      H      0.909030000000     0.266300000000     0.555970000000     0          
C31      C      0.311000000000     0.739700000000     0.528000000000     0          
C32      C      0.370400000000     0.727600000000     0.556000000000     0          
C33      C      0.382600000000     0.668300000000     0.584000000000     0          
H34      H      0.409030000000     0.766300000000     0.555970000000     0          
C35      C      0.311000000000     0.239700000000     0.028000000000     0          
C36      C      0.811000000000     0.260300000000     0.972000000000     0          
C37      C      0.311000000000     0.260300000000     0.472000000000     0          
C38      C      0.370400000000     0.272400000000     0.444000000000     0          
C39      C      0.382600000000     0.331700000000     0.416000000000     0          
H40      H      0.409030000000     0.233700000000     0.444030000000     0          
C41      C      0.528000000000     0.689000000000     0.260300000000     0          
C42      C      0.972000000000     0.689000000000     0.239700000000     0          
C43      C      0.472000000000     0.189000000000     0.239700000000     0          
C44      C      0.444000000000     0.129600000000     0.227600000000     0          
C45      C      0.416000000000     0.117400000000     0.168300000000     0          
H46      H      0.444030000000     0.090970000000     0.266300000000     0          
C47      C      0.028000000000     0.311000000000     0.239700000000     0          
C48      C      0.528000000000     0.311000000000     0.739700000000     0          
C49      C      0.556000000000     0.370400000000     0.727600000000     0          
C50      C      0.584000000000     0.382600000000     0.668300000000     0          
H51      H      0.555970000000     0.409030000000     0.766300000000     0          
C52      C      0.972000000000     0.311000000000     0.760300000000     0          
C53      C      0.472000000000     0.811000000000     0.760300000000     0          
C54      C      0.028000000000     0.760300000000     0.311000000000     0          
C55      C      0.056000000000     0.772400000000     0.370400000000     0          
C56      C      0.084000000000     0.831700000000     0.382600000000     0          
H57      H      0.055970000000     0.733700000000     0.409030000000     0          
C58      C      0.528000000000     0.260300000000     0.311000000000     0          
C59      C      0.972000000000     0.239700000000     0.311000000000     0          
C60      C      0.944000000000     0.227600000000     0.370400000000     0          
C61      C      0.916000000000     0.168300000000     0.382600000000     0          
H62      H      0.944030000000     0.266300000000     0.409030000000     0          
C63      C      0.472000000000     0.239700000000     0.811000000000     0          
C64      C      0.028000000000     0.239700000000     0.689000000000     0          
C65      C      0.056000000000     0.227600000000     0.629600000000     0          
C66      C      0.084000000000     0.168300000000     0.617400000000     0          
H67      H      0.055970000000     0.266300000000     0.590970000000     0          
C68      C      0.528000000000     0.739700000000     0.689000000000     0          
C69      C      0.556000000000     0.727600000000     0.629600000000     0          
C70      C      0.584000000000     0.668300000000     0.617400000000     0          
H71      H      0.555970000000     0.766300000000     0.590970000000     0          
C72      C      0.472000000000     0.760300000000     0.189000000000     0          
C73      C      0.444000000000     0.772400000000     0.129600000000     0          
C74      C      0.416000000000     0.831700000000     0.117400000000     0          
H75      H      0.444030000000     0.733700000000     0.090970000000     0          
C76      C      0.739700000000     0.189000000000     0.028000000000     0          
C77      C      0.727600000000     0.129600000000     0.056000000000     0          
C78      C      0.668300000000     0.117400000000     0.084000000000     0          
H79      H      0.766300000000     0.090970000000     0.055970000000     0          
C80      C      0.239700000000     0.189000000000     0.528000000000     0          
C81      C      0.739700000000     0.811000000000     0.972000000000     0          
C82      C      0.727600000000     0.870400000000     0.944000000000     0          
C83      C      0.668300000000     0.882600000000     0.916000000000     0          
H84      H      0.766300000000     0.909030000000     0.944030000000     0          
C85      C      0.739700000000     0.311000000000     0.472000000000     0          
C86      C      0.239700000000     0.811000000000     0.472000000000     0          
C87      C      0.239700000000     0.311000000000     0.972000000000     0          
C88      C      0.227600000000     0.370400000000     0.944000000000     0          
C89      C      0.168300000000     0.382600000000     0.916000000000     0          
H90      H      0.266300000000     0.409030000000     0.944030000000     0          
C91      C      0.260300000000     0.811000000000     0.028000000000     0          
C92      C      0.272400000000     0.870400000000     0.056000000000     0          
C93      C      0.331700000000     0.882600000000     0.084000000000     0          
H94      H      0.233700000000     0.909030000000     0.055970000000     0          
C95      C      0.760300000000     0.811000000000     0.528000000000     0          
C96      C      0.189000000000     0.028000000000     0.739700000000     0          
C97      C      0.689000000000     0.028000000000     0.239700000000     0          
C98      C      0.629600000000     0.056000000000     0.227600000000     0          
C99      C      0.617400000000     0.084000000000     0.168300000000     0          
H100     H      0.590970000000     0.055970000000     0.266300000000     0          
C101     C      0.689000000000     0.528000000000     0.739700000000     0          
C102     C      0.189000000000     0.972000000000     0.260300000000     0          
C103     C      0.129600000000     0.944000000000     0.272400000000     0          
C104     C      0.117400000000     0.916000000000     0.331700000000     0          
H105     H      0.090970000000     0.944030000000     0.233700000000     0          
C106     C      0.189000000000     0.472000000000     0.760300000000     0          
C107     C      0.311000000000     0.528000000000     0.260300000000     0          
C108     C      0.370400000000     0.556000000000     0.272400000000     0          
C109     C      0.382600000000     0.584000000000     0.331700000000     0          
H110     H      0.409030000000     0.555970000000     0.233700000000     0          
C111     C      0.811000000000     0.972000000000     0.739700000000     0          
C112     C      0.870400000000     0.944000000000     0.727600000000     0          
C113     C      0.882600000000     0.916000000000     0.668300000000     0          
H114     H      0.909030000000     0.944030000000     0.766300000000     0          
C115     C      0.811000000000     0.472000000000     0.239700000000     0          
C116     C      0.239700000000     0.972000000000     0.311000000000     0          
C117     C      0.227600000000     0.944000000000     0.370400000000     0          
C118     C      0.168300000000     0.916000000000     0.382600000000     0          
H119     H      0.266300000000     0.944030000000     0.409030000000     0          
C120     C      0.239700000000     0.472000000000     0.811000000000     0          
C121     C      0.260300000000     0.528000000000     0.311000000000     0          
C122     C      0.272400000000     0.556000000000     0.370400000000     0          
C123     C      0.331700000000     0.584000000000     0.382600000000     0          
H124     H      0.233700000000     0.555970000000     0.409030000000     0          
C125     C      0.760300000000     0.972000000000     0.689000000000     0          
C126     C      0.772400000000     0.944000000000     0.629600000000     0          
C127     C      0.831700000000     0.916000000000     0.617400000000     0          
H128     H      0.733700000000     0.944030000000     0.590970000000     0          
C129     C      0.760300000000     0.472000000000     0.189000000000     0          
C130     C      0.739700000000     0.028000000000     0.189000000000     0          
C131     C      0.727600000000     0.056000000000     0.129600000000     0          
C132     C      0.668300000000     0.084000000000     0.117400000000     0          
H133     H      0.766300000000     0.055970000000     0.090970000000     0          
C134     C      0.739700000000     0.528000000000     0.689000000000     0          
C135     C      0.239700000000     0.028000000000     0.689000000000     0          
C136     C      0.811000000000     0.760300000000     0.528000000000     0          
C137     C      0.311000000000     0.760300000000     0.028000000000     0          
C138     C      0.370400000000     0.772400000000     0.056000000000     0          
C139     C      0.382600000000     0.831700000000     0.084000000000     0          
H140     H      0.409030000000     0.733700000000     0.055970000000     0          
C141     C      0.189000000000     0.260300000000     0.972000000000     0          
C142     C      0.129600000000     0.272400000000     0.944000000000     0          
C143     C      0.117400000000     0.331700000000     0.916000000000     0          
H144     H      0.090970000000     0.233700000000     0.944030000000     0          
C145     C      0.189000000000     0.760300000000     0.472000000000     0          
C146     C      0.689000000000     0.260300000000     0.472000000000     0          
C147     C      0.689000000000     0.760300000000     0.972000000000     0          
C148     C      0.629600000000     0.772400000000     0.944000000000     0          
C149     C      0.617400000000     0.831700000000     0.916000000000     0          
H150     H      0.590970000000     0.733700000000     0.944030000000     0          
C151     C      0.189000000000     0.239700000000     0.528000000000     0          
C152     C      0.689000000000     0.239700000000     0.028000000000     0          
C153     C      0.629600000000     0.227600000000     0.056000000000     0          
C154     C      0.617400000000     0.168300000000     0.084000000000     0          
H155     H      0.590970000000     0.266300000000     0.055970000000     0          
C156     C      0.472000000000     0.811000000000     0.239700000000     0          
C157     C      0.444000000000     0.870400000000     0.227600000000     0          
C158     C      0.416000000000     0.882600000000     0.168300000000     0          
H159     H      0.444030000000     0.909030000000     0.266300000000     0          
C160     C      0.028000000000     0.811000000000     0.260300000000     0          
C161     C      0.056000000000     0.870400000000     0.272400000000     0          
C162     C      0.084000000000     0.882600000000     0.331700000000     0          
H163     H      0.055970000000     0.909030000000     0.233700000000     0          
C164     C      0.528000000000     0.311000000000     0.260300000000     0          
C165     C      0.972000000000     0.189000000000     0.260300000000     0          
C166     C      0.944000000000     0.129600000000     0.272400000000     0          
C167     C      0.916000000000     0.117400000000     0.331700000000     0          
H168     H      0.944030000000     0.090970000000     0.233700000000     0          
C169     C      0.472000000000     0.189000000000     0.760300000000     0          
C170     C      0.028000000000     0.189000000000     0.739700000000     0          
C171     C      0.056000000000     0.129600000000     0.727600000000     0          
C172     C      0.084000000000     0.117400000000     0.668300000000     0          
H173     H      0.055970000000     0.090970000000     0.766300000000     0          
C174     C      0.528000000000     0.689000000000     0.739700000000     0          
C175     C      0.556000000000     0.629600000000     0.727600000000     0          
C176     C      0.584000000000     0.617400000000     0.668300000000     0          
H177     H      0.555970000000     0.590970000000     0.766300000000     0          
C178     C      0.972000000000     0.739700000000     0.189000000000     0          
C179     C      0.472000000000     0.239700000000     0.189000000000     0          
C180     C      0.444000000000     0.227600000000     0.129600000000     0          
C181     C      0.416000000000     0.168300000000     0.117400000000     0          
H182     H      0.444030000000     0.266300000000     0.090970000000     0          
C183     C      0.028000000000     0.260300000000     0.189000000000     0          
C184     C      0.528000000000     0.260300000000     0.689000000000     0          
C185     C      0.556000000000     0.272400000000     0.629600000000     0          
C186     C      0.584000000000     0.331700000000     0.617400000000     0          
H187     H      0.555970000000     0.233700000000     0.590970000000     0          
C188     C      0.972000000000     0.260300000000     0.811000000000     0          
C189     C      0.472000000000     0.760300000000     0.811000000000     0          
C190     C      0.056000000000     0.227600000000     0.370400000000     0          
H191     H      0.055970000000     0.266300000000     0.409030000000     0          
C192     C      0.260300000000     0.311000000000     0.472000000000     0          
C193     C      0.272400000000     0.370400000000     0.444000000000     0          
C194     C      0.331700000000     0.382600000000     0.416000000000     0          
H195     H      0.233700000000     0.409030000000     0.444030000000     0          
C196     C      0.760300000000     0.311000000000     0.972000000000     0          
C197     C      0.260300000000     0.189000000000     0.028000000000     0          
C198     C      0.260300000000     0.689000000000     0.528000000000     0          
C199     C      0.272400000000     0.629600000000     0.556000000000     0          
C200     C      0.331700000000     0.617400000000     0.584000000000     0          
H201     H      0.233700000000     0.590970000000     0.555970000000     0          
C202     C      0.760300000000     0.189000000000     0.528000000000     0          
C203     C      0.772400000000     0.129600000000     0.556000000000     0          
C204     C      0.831700000000     0.117400000000     0.584000000000     0          
H205     H      0.733700000000     0.090970000000     0.555970000000     0          
C206     C      0.760300000000     0.689000000000     0.028000000000     0          
C207     C      0.739700000000     0.689000000000     0.472000000000     0          
C208     C      0.727600000000     0.629600000000     0.444000000000     0          
C209     C      0.668300000000     0.617400000000     0.416000000000     0          
H210     H      0.766300000000     0.590970000000     0.444030000000     0          
C211     C      0.239700000000     0.689000000000     0.972000000000     0          
C212     C      0.811000000000     0.972000000000     0.260300000000     0          
C213     C      0.811000000000     0.472000000000     0.760300000000     0          
C214     C      0.870400000000     0.444000000000     0.772400000000     0          
C215     C      0.882600000000     0.416000000000     0.831700000000     0          
H216     H      0.909030000000     0.444030000000     0.733700000000     0          
C217     C      0.311000000000     0.972000000000     0.760300000000     0          
C218     C      0.370400000000     0.944000000000     0.772400000000     0          
C219     C      0.382600000000     0.916000000000     0.831700000000     0          
H220     H      0.409030000000     0.944030000000     0.733700000000     0          
C221     C      0.311000000000     0.028000000000     0.239700000000     0          
C222     C      0.311000000000     0.528000000000     0.739700000000     0          
C223     C      0.370400000000     0.556000000000     0.727600000000     0          
C224     C      0.382600000000     0.584000000000     0.668300000000     0          
H225     H      0.409030000000     0.555970000000     0.766300000000     0          
C226     C      0.189000000000     0.472000000000     0.239700000000     0          
C227     C      0.689000000000     0.028000000000     0.760300000000     0          
C228     C      0.689000000000     0.528000000000     0.260300000000     0          
C229     C      0.629600000000     0.556000000000     0.272400000000     0          
C230     C      0.617400000000     0.584000000000     0.331700000000     0          
H231     H      0.590970000000     0.555970000000     0.233700000000     0          
Zr232    Zr     0.117600000000     0.000000000000     0.000000000000     0          
Zr233    Zr     0.117600000000     0.500000000000     0.500000000000     0          
Zr234    Zr     0.617600000000     0.000000000000     0.500000000000     0          
Zr235    Zr     0.617600000000     0.500000000000     0.000000000000     0          
Zr236    Zr     0.882400000000     0.000000000000     0.000000000000     0          
Zr237    Zr     0.882400000000     0.500000000000     0.500000000000     0          
Zr238    Zr     0.382400000000     0.000000000000     0.500000000000     0          
Zr239    Zr     0.382400000000     0.500000000000     0.000000000000     0          
Zr240    Zr     0.000000000000     0.117600000000     0.000000000000     0          
Zr241    Zr     0.000000000000     0.617600000000     0.500000000000     0          
Zr242    Zr     0.500000000000     0.117600000000     0.500000000000     0          
Zr243    Zr     0.500000000000     0.617600000000     0.000000000000     0          
Zr244    Zr     0.000000000000     0.882400000000     0.000000000000     0          
Zr245    Zr     0.000000000000     0.382400000000     0.500000000000     0          
Zr246    Zr     0.500000000000     0.882400000000     0.500000000000     0          
Zr247    Zr     0.500000000000     0.382400000000     0.000000000000     0          
Zr248    Zr     0.000000000000     0.000000000000     0.117600000000     0          
Zr249    Zr     0.000000000000     0.500000000000     0.617600000000     0          
Zr250    Zr     0.500000000000     0.000000000000     0.617600000000     0          
Zr251    Zr     0.500000000000     0.500000000000     0.117600000000     0          
Zr252    Zr     0.000000000000     0.000000000000     0.882400000000     0          
Zr253    Zr     0.000000000000     0.500000000000     0.382400000000     0          
Zr254    Zr     0.500000000000     0.000000000000     0.382400000000     0          
Zr255    Zr     0.500000000000     0.500000000000     0.882400000000     0          
O256     O      0.169900000000     0.000000000000     0.090300000000     0          
O257     O      0.169900000000     0.500000000000     0.590300000000     0          
O258     O      0.669900000000     0.000000000000     0.590300000000     0          
O259     O      0.669900000000     0.500000000000     0.090300000000     0          
O260     O      0.830100000000     0.000000000000     0.090300000000     0          
O261     O      0.830100000000     0.500000000000     0.590300000000     0          
O262     O      0.330100000000     0.000000000000     0.590300000000     0          
O263     O      0.330100000000     0.500000000000     0.090300000000     0          
O264     O      0.830100000000     0.000000000000     0.909700000000     0          
O265     O      0.830100000000     0.500000000000     0.409700000000     0          
O266     O      0.330100000000     0.000000000000     0.409700000000     0          
O267     O      0.330100000000     0.500000000000     0.909700000000     0          
O268     O      0.169900000000     0.000000000000     0.909700000000     0          
O269     O      0.169900000000     0.500000000000     0.409700000000     0          
O270     O      0.669900000000     0.000000000000     0.409700000000     0          
O271     O      0.669900000000     0.500000000000     0.909700000000     0          
O272     O      0.090300000000     0.169900000000     0.000000000000     0          
O273     O      0.090300000000     0.669900000000     0.500000000000     0          
O274     O      0.590300000000     0.169900000000     0.500000000000     0          
O275     O      0.590300000000     0.669900000000     0.000000000000     0          
O276     O      0.090300000000     0.830100000000     0.000000000000     0          
O277     O      0.090300000000     0.330100000000     0.500000000000     0          
O278     O      0.590300000000     0.830100000000     0.500000000000     0          
O279     O      0.590300000000     0.330100000000     0.000000000000     0          
O280     O      0.909700000000     0.830100000000     0.000000000000     0          
O281     O      0.909700000000     0.330100000000     0.500000000000     0          
O282     O      0.409700000000     0.830100000000     0.500000000000     0          
O283     O      0.409700000000     0.330100000000     0.000000000000     0          
O284     O      0.909700000000     0.169900000000     0.000000000000     0          
O285     O      0.909700000000     0.669900000000     0.500000000000     0          
O286     O      0.409700000000     0.169900000000     0.500000000000     0          
O287     O      0.409700000000     0.669900000000     0.000000000000     0          
O288     O      0.000000000000     0.090300000000     0.169900000000     0          
O289     O      0.000000000000     0.590300000000     0.669900000000     0          
O290     O      0.500000000000     0.090300000000     0.669900000000     0          
O291     O      0.500000000000     0.590300000000     0.169900000000     0          
O292     O      0.000000000000     0.090300000000     0.830100000000     0          
O293     O      0.000000000000     0.590300000000     0.330100000000     0          
O294     O      0.500000000000     0.090300000000     0.330100000000     0          
O295     O      0.500000000000     0.590300000000     0.830100000000     0          
O296     O      0.000000000000     0.909700000000     0.830100000000     0          
O297     O      0.000000000000     0.409700000000     0.330100000000     0          
O298     O      0.500000000000     0.909700000000     0.330100000000     0          
O299     O      0.500000000000     0.409700000000     0.830100000000     0          
O300     O      0.000000000000     0.909700000000     0.169900000000     0          
O301     O      0.000000000000     0.409700000000     0.669900000000     0          
O302     O      0.500000000000     0.909700000000     0.669900000000     0          
O303     O      0.500000000000     0.409700000000     0.169900000000     0          
O304     O      0.000000000000     0.169900000000     0.909700000000     0          
O305     O      0.000000000000     0.669900000000     0.409700000000     0          
O306     O      0.500000000000     0.169900000000     0.409700000000     0          
O307     O      0.500000000000     0.669900000000     0.909700000000     0          
O308     O      0.000000000000     0.830100000000     0.909700000000     0          
O309     O      0.000000000000     0.330100000000     0.409700000000     0          
O310     O      0.500000000000     0.830100000000     0.409700000000     0          
O311     O      0.500000000000     0.330100000000     0.909700000000     0          
O312     O      0.000000000000     0.830100000000     0.090300000000     0          
O313     O      0.000000000000     0.330100000000     0.590300000000     0          
O314     O      0.500000000000     0.830100000000     0.590300000000     0          
O315     O      0.500000000000     0.330100000000     0.090300000000     0          
O316     O      0.000000000000     0.169900000000     0.090300000000     0          
O317     O      0.000000000000     0.669900000000     0.590300000000     0          
O318     O      0.500000000000     0.169900000000     0.590300000000     0          
O319     O      0.500000000000     0.669900000000     0.090300000000     0          
O320     O      0.169900000000     0.090300000000     0.000000000000     0          
O321     O      0.169900000000     0.590300000000     0.500000000000     0          
O322     O      0.669900000000     0.090300000000     0.500000000000     0          
O323     O      0.669900000000     0.590300000000     0.000000000000     0          
O324     O      0.830100000000     0.090300000000     0.000000000000     0          
O325     O      0.830100000000     0.590300000000     0.500000000000     0          
O326     O      0.330100000000     0.090300000000     0.500000000000     0          
O327     O      0.330100000000     0.590300000000     0.000000000000     0          
O328     O      0.830100000000     0.909700000000     0.000000000000     0          
O329     O      0.830100000000     0.409700000000     0.500000000000     0          
O330     O      0.330100000000     0.909700000000     0.500000000000     0          
O331     O      0.330100000000     0.409700000000     0.000000000000     0          
O332     O      0.169900000000     0.909700000000     0.000000000000     0          
O333     O      0.169900000000     0.409700000000     0.500000000000     0          
O334     O      0.669900000000     0.909700000000     0.500000000000     0          
O335     O      0.669900000000     0.409700000000     0.000000000000     0          
O336     O      0.090300000000     0.000000000000     0.830100000000     0          
O337     O      0.090300000000     0.500000000000     0.330100000000     0          
O338     O      0.590300000000     0.000000000000     0.330100000000     0          
O339     O      0.590300000000     0.500000000000     0.830100000000     0          
O340     O      0.090300000000     0.000000000000     0.169900000000     0          
O341     O      0.090300000000     0.500000000000     0.669900000000     0          
O342     O      0.590300000000     0.000000000000     0.669900000000     0          
O343     O      0.590300000000     0.500000000000     0.169900000000     0          
O344     O      0.909700000000     0.000000000000     0.169900000000     0          
O345     O      0.909700000000     0.500000000000     0.669900000000     0          
O346     O      0.409700000000     0.000000000000     0.669900000000     0          
O347     O      0.409700000000     0.500000000000     0.169900000000     0          
O348     O      0.909700000000     0.000000000000     0.830100000000     0          
O349     O      0.909700000000     0.500000000000     0.330100000000     0          
O350     O      0.409700000000     0.000000000000     0.330100000000     0          
O351     O      0.409700000000     0.500000000000     0.830100000000     0          
O352     O      0.064100000000     0.064100000000     0.064100000000     0          
O353     O      0.064100000000     0.564100000000     0.564100000000     0          
O354     O      0.564100000000     0.064100000000     0.564100000000     0          
O355     O      0.564100000000     0.564100000000     0.064100000000     0          
O356     O      0.935900000000     0.935900000000     0.064100000000     0          
O357     O      0.935900000000     0.435900000000     0.564100000000     0          
O358     O      0.435900000000     0.935900000000     0.564100000000     0          
O359     O      0.435900000000     0.435900000000     0.064100000000     0          
O360     O      0.935900000000     0.064100000000     0.935900000000     0          
O361     O      0.935900000000     0.564100000000     0.435900000000     0          
O362     O      0.435900000000     0.064100000000     0.435900000000     0          
O363     O      0.435900000000     0.564100000000     0.935900000000     0          
O364     O      0.064100000000     0.935900000000     0.935900000000     0          
O365     O      0.064100000000     0.435900000000     0.435900000000     0          
O366     O      0.564100000000     0.935900000000     0.435900000000     0          
O367     O      0.564100000000     0.435900000000     0.935900000000     0          
O368     O      0.064100000000     0.064100000000     0.935900000000     0          
O369     O      0.064100000000     0.564100000000     0.435900000000     0          
O370     O      0.564100000000     0.064100000000     0.435900000000     0          
O371     O      0.564100000000     0.564100000000     0.935900000000     0          
O372     O      0.935900000000     0.935900000000     0.935900000000     0          
O373     O      0.935900000000     0.435900000000     0.435900000000     0          
O374     O      0.435900000000     0.935900000000     0.435900000000     0          
O375     O      0.435900000000     0.435900000000     0.935900000000     0          
O376     O      0.064100000000     0.935900000000     0.064100000000     0          
O377     O      0.064100000000     0.435900000000     0.564100000000     0          
O378     O      0.564100000000     0.935900000000     0.564100000000     0          
O379     O      0.564100000000     0.435900000000     0.064100000000     0          
O380     O      0.935900000000     0.064100000000     0.064100000000     0          
O381     O      0.935900000000     0.564100000000     0.564100000000     0          
O382     O      0.435900000000     0.064100000000     0.564100000000     0          
O383     O      0.435900000000     0.564100000000     0.064100000000     0          
C384     C      0.150400000000     0.000000000000     0.150400000000     0          
C385     C      0.201200000000     0.000000000000     0.201200000000     0          
C386     C      0.150400000000     0.500000000000     0.650400000000     0          
C387     C      0.201200000000     0.500000000000     0.701200000000     0          
C388     C      0.650400000000     0.000000000000     0.650400000000     0          
C389     C      0.701200000000     0.000000000000     0.701200000000     0          
C390     C      0.650400000000     0.500000000000     0.150400000000     0          
C391     C      0.701200000000     0.500000000000     0.201200000000     0          
C392     C      0.849600000000     0.000000000000     0.150400000000     0          
C393     C      0.798800000000     0.000000000000     0.201200000000     0          
C394     C      0.849600000000     0.500000000000     0.650400000000     0          
C395     C      0.798800000000     0.500000000000     0.701200000000     0          
C396     C      0.349600000000     0.000000000000     0.650400000000     0          
C397     C      0.298800000000     0.000000000000     0.701200000000     0          
C398     C      0.349600000000     0.500000000000     0.150400000000     0          
C399     C      0.298800000000     0.500000000000     0.201200000000     0          
C400     C      0.849600000000     0.000000000000     0.849600000000     0          
C401     C      0.798800000000     0.000000000000     0.798800000000     0          
C402     C      0.849600000000     0.500000000000     0.349600000000     0          
C403     C      0.798800000000     0.500000000000     0.298800000000     0          
C404     C      0.349600000000     0.000000000000     0.349600000000     0          
C405     C      0.298800000000     0.000000000000     0.298800000000     0          
C406     C      0.349600000000     0.500000000000     0.849600000000     0          
C407     C      0.298800000000     0.500000000000     0.798800000000     0          
C408     C      0.150400000000     0.000000000000     0.849600000000     0          
C409     C      0.201200000000     0.000000000000     0.798800000000     0          
C410     C      0.150400000000     0.500000000000     0.349600000000     0          
C411     C      0.201200000000     0.500000000000     0.298800000000     0          
C412     C      0.650400000000     0.000000000000     0.349600000000     0          
C413     C      0.701200000000     0.000000000000     0.298800000000     0          
C414     C      0.650400000000     0.500000000000     0.849600000000     0          
C415     C      0.701200000000     0.500000000000     0.798800000000     0          
C416     C      0.150400000000     0.150400000000     0.000000000000     0          
C417     C      0.201200000000     0.201200000000     0.000000000000     0          
C418     C      0.150400000000     0.650400000000     0.500000000000     0          
C419     C      0.201200000000     0.701200000000     0.500000000000     0          
C420     C      0.650400000000     0.150400000000     0.500000000000     0          
C421     C      0.701200000000     0.201200000000     0.500000000000     0          
C422     C      0.650400000000     0.650400000000     0.000000000000     0          
C423     C      0.701200000000     0.701200000000     0.000000000000     0          
C424     C      0.150400000000     0.849600000000     0.000000000000     0          
C425     C      0.201200000000     0.798800000000     0.000000000000     0          
C426     C      0.150400000000     0.349600000000     0.500000000000     0          
C427     C      0.201200000000     0.298800000000     0.500000000000     0          
C428     C      0.650400000000     0.849600000000     0.500000000000     0          
C429     C      0.701200000000     0.798800000000     0.500000000000     0          
C430     C      0.650400000000     0.349600000000     0.000000000000     0          
C431     C      0.701200000000     0.298800000000     0.000000000000     0          
C432     C      0.849600000000     0.849600000000     0.000000000000     0          
C433     C      0.798800000000     0.798800000000     0.000000000000     0          
C434     C      0.849600000000     0.349600000000     0.500000000000     0          
C435     C      0.798800000000     0.298800000000     0.500000000000     0          
C436     C      0.349600000000     0.849600000000     0.500000000000     0          
C437     C      0.298800000000     0.798800000000     0.500000000000     0          
C438     C      0.349600000000     0.349600000000     0.000000000000     0          
C439     C      0.298800000000     0.298800000000     0.000000000000     0          
C440     C      0.849600000000     0.150400000000     0.000000000000     0          
C441     C      0.798800000000     0.201200000000     0.000000000000     0          
C442     C      0.849600000000     0.650400000000     0.500000000000     0          
C443     C      0.798800000000     0.701200000000     0.500000000000     0          
C444     C      0.349600000000     0.150400000000     0.500000000000     0          
C445     C      0.298800000000     0.201200000000     0.500000000000     0          
C446     C      0.349600000000     0.650400000000     0.000000000000     0          
C447     C      0.298800000000     0.701200000000     0.000000000000     0          
C448     C      0.000000000000     0.201200000000     0.201200000000     0          
C449     C      0.000000000000     0.650400000000     0.650400000000     0          
C450     C      0.000000000000     0.701200000000     0.701200000000     0          
C451     C      0.500000000000     0.150400000000     0.650400000000     0          
C452     C      0.500000000000     0.201200000000     0.701200000000     0          
C453     C      0.500000000000     0.650400000000     0.150400000000     0          
C454     C      0.500000000000     0.701200000000     0.201200000000     0          
C455     C      0.000000000000     0.150400000000     0.849600000000     0          
C456     C      0.000000000000     0.201200000000     0.798800000000     0          
C457     C      0.000000000000     0.650400000000     0.349600000000     0          
C458     C      0.000000000000     0.701200000000     0.298800000000     0          
C459     C      0.500000000000     0.150400000000     0.349600000000     0          
C460     C      0.500000000000     0.201200000000     0.298800000000     0          
C461     C      0.500000000000     0.650400000000     0.849600000000     0          
C462     C      0.500000000000     0.701200000000     0.798800000000     0          
C463     C      0.000000000000     0.849600000000     0.849600000000     0          
C464     C      0.000000000000     0.798800000000     0.798800000000     0          
C465     C      0.000000000000     0.349600000000     0.349600000000     0          
C466     C      0.000000000000     0.298800000000     0.298800000000     0          
C467     C      0.500000000000     0.849600000000     0.349600000000     0          
C468     C      0.500000000000     0.798800000000     0.298800000000     0          
C469     C      0.500000000000     0.349600000000     0.849600000000     0          
C470     C      0.500000000000     0.298800000000     0.798800000000     0          
C471     C      0.000000000000     0.849600000000     0.150400000000     0          
C472     C      0.000000000000     0.798800000000     0.201200000000     0          
C473     C      0.000000000000     0.349600000000     0.650400000000     0          
C474     C      0.000000000000     0.298800000000     0.701200000000     0          
C475     C      0.500000000000     0.849600000000     0.650400000000     0          
C476     C      0.500000000000     0.798800000000     0.701200000000     0          
C477     C      0.500000000000     0.349600000000     0.150400000000     0          
C478     C      0.500000000000     0.298800000000     0.201200000000     0          
C479     C      0.972000000000     0.811000000000     0.739700000000     0          
C480     C      0.944000000000     0.870400000000     0.727600000000     0          
C481     C      0.916000000000     0.882600000000     0.668300000000     0          
C482     C      0.028000000000     0.739700000000     0.811000000000     0          
C483     C      0.028000000000     0.689000000000     0.760300000000     0          
C484     C      0.972000000000     0.760300000000     0.689000000000     0          
C485     C      0.944000000000     0.772400000000     0.629600000000     0          
C486     C      0.916000000000     0.831700000000     0.617400000000     0          
H489     H      0.229850000000     0.859630000000     0.449030000000     0          
H490     H      0.140370000000     0.770150000000     0.449030000000     0          
H491     H      0.770150000000     0.859630000000     0.550970000000     0          
H492     H      0.859630000000     0.770150000000     0.550970000000     0          
H493     H      0.140370000000     0.449030000000     0.229850000000     0          
H494     H      0.229850000000     0.140370000000     0.550970000000     0          
H495     H      0.140370000000     0.229850000000     0.550970000000     0          
H496     H      0.449030000000     0.229850000000     0.859630000000     0          
H497     H      0.449030000000     0.140370000000     0.770150000000     0          
H498     H      0.000050000000     0.837400000000     0.837520000000     0          
H499     H      0.050970000000     0.729850000000     0.859630000000     0          
H500     H      0.999950000000     0.662600000000     0.662480000000     0          
H501     H      0.050970000000     0.640370000000     0.770150000000     0          
H502     H      0.859630000000     0.449030000000     0.229850000000     0          
H503     H      0.770150000000     0.449030000000     0.140370000000     0          
H504     H      0.550970000000     0.270150000000     0.359630000000     0          
H505     H      0.550970000000     0.359630000000     0.270150000000     0          
H506     H      0.729850000000     0.359630000000     0.449030000000     0          
H507     H      0.640370000000     0.270150000000     0.449030000000     0          
H508     H      0.229850000000     0.449030000000     0.140370000000     0          
H509     H      0.140370000000     0.449030000000     0.770150000000     0          
H510     H      0.229850000000     0.449030000000     0.859630000000     0          
H511     H      0.949030000000     0.359630000000     0.770150000000     0          
H512     H      0.949030000000     0.270150000000     0.859630000000     0          
H513     H      0.050970000000     0.359630000000     0.229850000000     0          
H514     H      0.000050000000     0.162600000000     0.162480000000     0          
H515     H      0.050970000000     0.270150000000     0.140370000000     0          
H516     H      0.949030000000     0.640370000000     0.229850000000     0          
H517     H      0.949030000000     0.729850000000     0.140370000000     0          
H518     H      0.140370000000     0.050970000000     0.729850000000     0          
H519     H      0.229850000000     0.050970000000     0.640370000000     0          
H520     H      0.270150000000     0.050970000000     0.140370000000     0          
H521     H      0.359630000000     0.050970000000     0.229850000000     0          
H522     H      0.729850000000     0.050970000000     0.859630000000     0          
H523     H      0.640370000000     0.050970000000     0.770150000000     0          
H524     H      0.770150000000     0.949030000000     0.359630000000     0          
H525     H      0.859630000000     0.949030000000     0.270150000000     0          
H526     H      0.449030000000     0.859630000000     0.770150000000     0          
H527     H      0.449030000000     0.770150000000     0.859630000000     0          
H528     H      0.140370000000     0.729850000000     0.949030000000     0          
H529     H      0.229850000000     0.640370000000     0.949030000000     0          
H530     H      0.859630000000     0.729850000000     0.050970000000     0          
H531     H      0.770150000000     0.640370000000     0.050970000000     0          
H532     H      0.859630000000     0.270150000000     0.949030000000     0          
H533     H      0.770150000000     0.359630000000     0.949030000000     0          
H534     H      0.359630000000     0.229850000000     0.050970000000     0          
H535     H      0.270150000000     0.140370000000     0.050970000000     0          


