data_RIBCAJ

_audit_creation_method RASPA-1.0
_audit_creation_date 2020-11-2
_audit_author_name 'Rocio Bueno-Perez'

_cell_length_a    25.068
_cell_length_b    42.667
_cell_length_c    13.8078
_cell_angle_alpha 90
_cell_angle_beta  90
_cell_angle_gamma 90
_cell_volume      14768.5

_symmetry_cell_setting          orthorhombic
_symmetry_space_group_name_Hall 'P 1'
_symmetry_space_group_name_H-M  'P 1'
_symmetry_Int_Tables_number     1

_symmetry_equiv_pos_as_xyz 'x,y,z'

loop_
_atom_site_label
_atom_site_type_symbol
_atom_site_fract_x
_atom_site_fract_y
_atom_site_fract_z
_atom_site_charge
Zr3      Zr     0.429510000000     0.289420000000     0.378560000000     0          
O1       O      0.052200000000     0.705930000000     0.347500000000     0          
O2       O      0.446300000000     0.372990000000     0.345300000000     0          
O7       O      0.398000000000     0.336910000000     0.423100000000     0          
C1       C      0.264800000000     0.511470000000     0.697400000000     0          
C2       C      0.287000000000     0.485610000000     0.644600000000     0          
C3       C      0.243800000000     0.536820000000     0.650100000000     0          
H1       H      0.243300000000     0.536800000000     0.582700000000     0          
C4       C      0.410200000000     0.364900000000     0.402500000000     0          
C5       C      0.330400000000     0.438680000000     0.551600000000     0          
C6       C      0.223000000000     0.562950000000     0.699600000000     0          
C7       C      0.158000000000     0.637400000000     0.560800000000     0          
C8       C      0.306900000000     0.464340000000     0.603700000000     0          
C9       C      0.379800000000     0.390400000000     0.452400000000     0          
C10      C      0.391500000000     0.420700000000     0.431500000000     0          
H2       H      0.414300000000     0.425500000000     0.380600000000     0          
C11      C      0.201800000000     0.589530000000     0.647800000000     0          
C12      C      0.368500000000     0.444800000000     0.488000000000     0          
H3       H      0.380400000000     0.465200000000     0.480300000000     0          
C13      C      0.184000000000     0.611300000000     0.607400000000     0          
C14      C      0.339100000000     0.385100000000     0.510800000000     0          
H4       H      0.326000000000     0.364800000000     0.516600000000     0          
O10      O      0.096000000000     0.741400000000     0.437400000000     0          
C15      C      0.083100000000     0.713850000000     0.412600000000     0          
C16      C      0.107500000000     0.687590000000     0.466900000000     0          
C17      C      0.094600000000     0.657200000000     0.443600000000     0          
H5       H      0.068100000000     0.653300000000     0.398200000000     0          
C18      C      0.166400000000     0.667500000000     0.587700000000     0          
H6       H      0.188300000000     0.671300000000     0.640800000000     0          
C19      C      0.315800000000     0.408400000000     0.562900000000     0          
H7       H      0.289200000000     0.403400000000     0.607300000000     0          
C20      C      0.144600000000     0.692100000000     0.541300000000     0          
H8       H      0.154400000000     0.712400000000     0.558900000000     0          
C21      C      0.121500000000     0.631700000000     0.488100000000     0          
H9       H      0.114500000000     0.611300000000     0.468300000000     0          
Zr1      Zr     0.500000000000     0.232250000000     0.250000000000     0          
Zr2      Zr     0.500000000000     0.346700000000     0.250000000000     0          
O3       O      0.438600000000     0.313820000000     0.250000000000     0          
O4       O      0.421200000000     0.258420000000     0.250000000000     0          
O5       O      0.500000000000     0.263720000000     0.364300000000     0          
O6       O      0.500000000000     0.320080000000     0.395700000000     0          
Zr3      Zr     0.570490000000     0.710580000000     0.878560000000     0          
O1       O      0.947800000000     0.294070000000     0.847500000000     0          
O2       O      0.553700000000     0.627010000000     0.845300000000     0          
O7       O      0.602000000000     0.663090000000     0.923100000000     0          
C1       C      0.735200000000     0.488530000000     0.197400000000     0          
C2       C      0.713000000000     0.514390000000     0.144600000000     0          
C3       C      0.756200000000     0.463180000000     0.150100000000     0          
H1       H      0.756700000000     0.463200000000     0.082700000000     0          
C4       C      0.589800000000     0.635100000000     0.902500000000     0          
C5       C      0.669600000000     0.561320000000     0.051600000000     0          
C6       C      0.777000000000     0.437050000000     0.199600000000     0          
C7       C      0.842000000000     0.362600000000     0.060800000000     0          
C8       C      0.693100000000     0.535660000000     0.103700000000     0          
C9       C      0.620200000000     0.609600000000     0.952400000000     0          
C10      C      0.608500000000     0.579300000000     0.931500000000     0          
H2       H      0.585700000000     0.574500000000     0.880600000000     0          
C11      C      0.798200000000     0.410470000000     0.147800000000     0          
C12      C      0.631500000000     0.555200000000     0.988000000000     0          
H3       H      0.619600000000     0.534800000000     0.980300000000     0          
C13      C      0.816000000000     0.388700000000     0.107400000000     0          
C14      C      0.660900000000     0.614900000000     0.010800000000     0          
H4       H      0.674000000000     0.635200000000     0.016600000000     0          
O10      O      0.904000000000     0.258600000000     0.937400000000     0          
C15      C      0.916900000000     0.286150000000     0.912600000000     0          
C16      C      0.892500000000     0.312410000000     0.966900000000     0          
C17      C      0.905400000000     0.342800000000     0.943600000000     0          
H5       H      0.931900000000     0.346700000000     0.898200000000     0          
C18      C      0.833600000000     0.332500000000     0.087700000000     0          
H6       H      0.811700000000     0.328700000000     0.140800000000     0          
C19      C      0.684200000000     0.591600000000     0.062900000000     0          
H7       H      0.710800000000     0.596600000000     0.107300000000     0          
C20      C      0.855400000000     0.307900000000     0.041300000000     0          
H8       H      0.845600000000     0.287600000000     0.058900000000     0          
C21      C      0.878500000000     0.368300000000     0.988100000000     0          
H9       H      0.885500000000     0.388700000000     0.968300000000     0          
Zr1      Zr     0.500000000000     0.767750000000     0.750000000000     0          
Zr2      Zr     0.500000000000     0.653300000000     0.750000000000     0          
O3       O      0.561400000000     0.686180000000     0.750000000000     0          
O4       O      0.578800000000     0.741580000000     0.750000000000     0          
O5       O      0.500000000000     0.736280000000     0.864300000000     0          
O6       O      0.500000000000     0.679920000000     0.895700000000     0          
Zr3      Zr     0.429510000000     0.710580000000     0.621440000000     0          
O1       O      0.052200000000     0.294070000000     0.652500000000     0          
O2       O      0.446300000000     0.627010000000     0.654700000000     0          
O7       O      0.398000000000     0.663090000000     0.576900000000     0          
C1       C      0.264800000000     0.488530000000     0.302600000000     0          
C2       C      0.287000000000     0.514390000000     0.355400000000     0          
C3       C      0.243800000000     0.463180000000     0.349900000000     0          
H1       H      0.243300000000     0.463200000000     0.417300000000     0          
C4       C      0.410200000000     0.635100000000     0.597500000000     0          
C5       C      0.330400000000     0.561320000000     0.448400000000     0          
C6       C      0.223000000000     0.437050000000     0.300400000000     0          
C7       C      0.158000000000     0.362600000000     0.439200000000     0          
C8       C      0.306900000000     0.535660000000     0.396300000000     0          
C9       C      0.379800000000     0.609600000000     0.547600000000     0          
C10      C      0.391500000000     0.579300000000     0.568500000000     0          
H2       H      0.414300000000     0.574500000000     0.619400000000     0          
C11      C      0.201800000000     0.410470000000     0.352200000000     0          
C12      C      0.368500000000     0.555200000000     0.512000000000     0          
H3       H      0.380400000000     0.534800000000     0.519700000000     0          
C13      C      0.184000000000     0.388700000000     0.392600000000     0          
C14      C      0.339100000000     0.614900000000     0.489200000000     0          
H4       H      0.326000000000     0.635200000000     0.483400000000     0          
O10      O      0.096000000000     0.258600000000     0.562600000000     0          
C15      C      0.083100000000     0.286150000000     0.587400000000     0          
C16      C      0.107500000000     0.312410000000     0.533100000000     0          
C17      C      0.094600000000     0.342800000000     0.556400000000     0          
H5       H      0.068100000000     0.346700000000     0.601800000000     0          
C18      C      0.166400000000     0.332500000000     0.412300000000     0          
H6       H      0.188300000000     0.328700000000     0.359200000000     0          
C19      C      0.315800000000     0.591600000000     0.437100000000     0          
H7       H      0.289200000000     0.596600000000     0.392700000000     0          
C20      C      0.144600000000     0.307900000000     0.458700000000     0          
H8       H      0.154400000000     0.287600000000     0.441100000000     0          
C21      C      0.121500000000     0.368300000000     0.511900000000     0          
H9       H      0.114500000000     0.388700000000     0.531700000000     0          
O3       O      0.438600000000     0.686180000000     0.750000000000     0          
O4       O      0.421200000000     0.741580000000     0.750000000000     0          
O5       O      0.500000000000     0.736280000000     0.635700000000     0          
O6       O      0.500000000000     0.679920000000     0.604300000000     0          
Zr3      Zr     0.570490000000     0.289420000000     0.121440000000     0          
O1       O      0.947800000000     0.705930000000     0.152500000000     0          
O2       O      0.553700000000     0.372990000000     0.154700000000     0          
O7       O      0.602000000000     0.336910000000     0.076900000000     0          
C1       C      0.735200000000     0.511470000000     0.802600000000     0          
C2       C      0.713000000000     0.485610000000     0.855400000000     0          
C3       C      0.756200000000     0.536820000000     0.849900000000     0          
H1       H      0.756700000000     0.536800000000     0.917300000000     0          
C4       C      0.589800000000     0.364900000000     0.097500000000     0          
C5       C      0.669600000000     0.438680000000     0.948400000000     0          
C6       C      0.777000000000     0.562950000000     0.800400000000     0          
C7       C      0.842000000000     0.637400000000     0.939200000000     0          
C8       C      0.693100000000     0.464340000000     0.896300000000     0          
C9       C      0.620200000000     0.390400000000     0.047600000000     0          
C10      C      0.608500000000     0.420700000000     0.068500000000     0          
H2       H      0.585700000000     0.425500000000     0.119400000000     0          
C11      C      0.798200000000     0.589530000000     0.852200000000     0          
C12      C      0.631500000000     0.444800000000     0.012000000000     0          
H3       H      0.619600000000     0.465200000000     0.019700000000     0          
C13      C      0.816000000000     0.611300000000     0.892600000000     0          
C14      C      0.660900000000     0.385100000000     0.989200000000     0          
H4       H      0.674000000000     0.364800000000     0.983400000000     0          
O10      O      0.904000000000     0.741400000000     0.062600000000     0          
C15      C      0.916900000000     0.713850000000     0.087400000000     0          
C16      C      0.892500000000     0.687590000000     0.033100000000     0          
C17      C      0.905400000000     0.657200000000     0.056400000000     0          
H5       H      0.931900000000     0.653300000000     0.101800000000     0          
C18      C      0.833600000000     0.667500000000     0.912300000000     0          
H6       H      0.811700000000     0.671300000000     0.859200000000     0          
C19      C      0.684200000000     0.408400000000     0.937100000000     0          
H7       H      0.710800000000     0.403400000000     0.892700000000     0          
C20      C      0.855400000000     0.692100000000     0.958700000000     0          
H8       H      0.845600000000     0.712400000000     0.941100000000     0          
C21      C      0.878500000000     0.631700000000     0.011900000000     0          
H9       H      0.885500000000     0.611300000000     0.031700000000     0          
O3       O      0.561400000000     0.313820000000     0.250000000000     0          
O4       O      0.578800000000     0.258420000000     0.250000000000     0          
O5       O      0.500000000000     0.263720000000     0.135700000000     0          
O6       O      0.500000000000     0.320080000000     0.104300000000     0          
Zr3      Zr     0.570490000000     0.710580000000     0.621440000000     0          
O1       O      0.947800000000     0.294070000000     0.652500000000     0          
O2       O      0.553700000000     0.627010000000     0.654700000000     0          
O7       O      0.602000000000     0.663090000000     0.576900000000     0          
C1       C      0.735200000000     0.488530000000     0.302600000000     0          
C2       C      0.713000000000     0.514390000000     0.355400000000     0          
C3       C      0.756200000000     0.463180000000     0.349900000000     0          
H1       H      0.756700000000     0.463200000000     0.417300000000     0          
C4       C      0.589800000000     0.635100000000     0.597500000000     0          
C5       C      0.669600000000     0.561320000000     0.448400000000     0          
C6       C      0.777000000000     0.437050000000     0.300400000000     0          
C7       C      0.842000000000     0.362600000000     0.439200000000     0          
C8       C      0.693100000000     0.535660000000     0.396300000000     0          
C9       C      0.620200000000     0.609600000000     0.547600000000     0          
C10      C      0.608500000000     0.579300000000     0.568500000000     0          
H2       H      0.585700000000     0.574500000000     0.619400000000     0          
C11      C      0.798200000000     0.410470000000     0.352200000000     0          
C12      C      0.631500000000     0.555200000000     0.512000000000     0          
H3       H      0.619600000000     0.534800000000     0.519700000000     0          
C13      C      0.816000000000     0.388700000000     0.392600000000     0          
C14      C      0.660900000000     0.614900000000     0.489200000000     0          
H4       H      0.674000000000     0.635200000000     0.483400000000     0          
O10      O      0.904000000000     0.258600000000     0.562600000000     0          
C15      C      0.916900000000     0.286150000000     0.587400000000     0          
C16      C      0.892500000000     0.312410000000     0.533100000000     0          
C17      C      0.905400000000     0.342800000000     0.556400000000     0          
H5       H      0.931900000000     0.346700000000     0.601800000000     0          
C18      C      0.833600000000     0.332500000000     0.412300000000     0          
H6       H      0.811700000000     0.328700000000     0.359200000000     0          
C19      C      0.684200000000     0.591600000000     0.437100000000     0          
H7       H      0.710800000000     0.596600000000     0.392700000000     0          
C20      C      0.855400000000     0.307900000000     0.458700000000     0          
H8       H      0.845600000000     0.287600000000     0.441100000000     0          
C21      C      0.878500000000     0.368300000000     0.511900000000     0          
H9       H      0.885500000000     0.388700000000     0.531700000000     0          
Zr3      Zr     0.429510000000     0.289420000000     0.121440000000     0          
O1       O      0.052200000000     0.705930000000     0.152500000000     0          
O2       O      0.446300000000     0.372990000000     0.154700000000     0          
O7       O      0.398000000000     0.336910000000     0.076900000000     0          
C1       C      0.264800000000     0.511470000000     0.802600000000     0          
C2       C      0.287000000000     0.485610000000     0.855400000000     0          
C3       C      0.243800000000     0.536820000000     0.849900000000     0          
H1       H      0.243300000000     0.536800000000     0.917300000000     0          
C4       C      0.410200000000     0.364900000000     0.097500000000     0          
C5       C      0.330400000000     0.438680000000     0.948400000000     0          
C6       C      0.223000000000     0.562950000000     0.800400000000     0          
C7       C      0.158000000000     0.637400000000     0.939200000000     0          
C8       C      0.306900000000     0.464340000000     0.896300000000     0          
C9       C      0.379800000000     0.390400000000     0.047600000000     0          
C10      C      0.391500000000     0.420700000000     0.068500000000     0          
H2       H      0.414300000000     0.425500000000     0.119400000000     0          
C11      C      0.201800000000     0.589530000000     0.852200000000     0          
C12      C      0.368500000000     0.444800000000     0.012000000000     0          
H3       H      0.380400000000     0.465200000000     0.019700000000     0          
C13      C      0.184000000000     0.611300000000     0.892600000000     0          
C14      C      0.339100000000     0.385100000000     0.989200000000     0          
H4       H      0.326000000000     0.364800000000     0.983400000000     0          
O10      O      0.096000000000     0.741400000000     0.062600000000     0          
C15      C      0.083100000000     0.713850000000     0.087400000000     0          
C16      C      0.107500000000     0.687590000000     0.033100000000     0          
C17      C      0.094600000000     0.657200000000     0.056400000000     0          
H5       H      0.068100000000     0.653300000000     0.101800000000     0          
C18      C      0.166400000000     0.667500000000     0.912300000000     0          
H6       H      0.188300000000     0.671300000000     0.859200000000     0          
C19      C      0.315800000000     0.408400000000     0.937100000000     0          
H7       H      0.289200000000     0.403400000000     0.892700000000     0          
C20      C      0.144600000000     0.692100000000     0.958700000000     0          
H8       H      0.154400000000     0.712400000000     0.941100000000     0          
C21      C      0.121500000000     0.631700000000     0.011900000000     0          
H9       H      0.114500000000     0.611300000000     0.031700000000     0          
Zr3      Zr     0.570490000000     0.289420000000     0.378560000000     0          
O1       O      0.947800000000     0.705930000000     0.347500000000     0          
O2       O      0.553700000000     0.372990000000     0.345300000000     0          
O7       O      0.602000000000     0.336910000000     0.423100000000     0          
C1       C      0.735200000000     0.511470000000     0.697400000000     0          
C2       C      0.713000000000     0.485610000000     0.644600000000     0          
C3       C      0.756200000000     0.536820000000     0.650100000000     0          
H1       H      0.756700000000     0.536800000000     0.582700000000     0          
C4       C      0.589800000000     0.364900000000     0.402500000000     0          
C5       C      0.669600000000     0.438680000000     0.551600000000     0          
C6       C      0.777000000000     0.562950000000     0.699600000000     0          
C7       C      0.842000000000     0.637400000000     0.560800000000     0          
C8       C      0.693100000000     0.464340000000     0.603700000000     0          
C9       C      0.620200000000     0.390400000000     0.452400000000     0          
C10      C      0.608500000000     0.420700000000     0.431500000000     0          
H2       H      0.585700000000     0.425500000000     0.380600000000     0          
C11      C      0.798200000000     0.589530000000     0.647800000000     0          
C12      C      0.631500000000     0.444800000000     0.488000000000     0          
H3       H      0.619600000000     0.465200000000     0.480300000000     0          
C13      C      0.816000000000     0.611300000000     0.607400000000     0          
C14      C      0.660900000000     0.385100000000     0.510800000000     0          
H4       H      0.674000000000     0.364800000000     0.516600000000     0          
O10      O      0.904000000000     0.741400000000     0.437400000000     0          
C15      C      0.916900000000     0.713850000000     0.412600000000     0          
C16      C      0.892500000000     0.687590000000     0.466900000000     0          
C17      C      0.905400000000     0.657200000000     0.443600000000     0          
H5       H      0.931900000000     0.653300000000     0.398200000000     0          
C18      C      0.833600000000     0.667500000000     0.587700000000     0          
H6       H      0.811700000000     0.671300000000     0.640800000000     0          
C19      C      0.684200000000     0.408400000000     0.562900000000     0          
H7       H      0.710800000000     0.403400000000     0.607300000000     0          
C20      C      0.855400000000     0.692100000000     0.541300000000     0          
H8       H      0.845600000000     0.712400000000     0.558900000000     0          
C21      C      0.878500000000     0.631700000000     0.488100000000     0          
H9       H      0.885500000000     0.611300000000     0.468300000000     0          
Zr3      Zr     0.429510000000     0.710580000000     0.878560000000     0          
O1       O      0.052200000000     0.294070000000     0.847500000000     0          
O2       O      0.446300000000     0.627010000000     0.845300000000     0          
O7       O      0.398000000000     0.663090000000     0.923100000000     0          
C1       C      0.264800000000     0.488530000000     0.197400000000     0          
C2       C      0.287000000000     0.514390000000     0.144600000000     0          
C3       C      0.243800000000     0.463180000000     0.150100000000     0          
H1       H      0.243300000000     0.463200000000     0.082700000000     0          
C4       C      0.410200000000     0.635100000000     0.902500000000     0          
C5       C      0.330400000000     0.561320000000     0.051600000000     0          
C6       C      0.223000000000     0.437050000000     0.199600000000     0          
C7       C      0.158000000000     0.362600000000     0.060800000000     0          
C8       C      0.306900000000     0.535660000000     0.103700000000     0          
C9       C      0.379800000000     0.609600000000     0.952400000000     0          
C10      C      0.391500000000     0.579300000000     0.931500000000     0          
H2       H      0.414300000000     0.574500000000     0.880600000000     0          
C11      C      0.201800000000     0.410470000000     0.147800000000     0          
C12      C      0.368500000000     0.555200000000     0.988000000000     0          
H3       H      0.380400000000     0.534800000000     0.980300000000     0          
C13      C      0.184000000000     0.388700000000     0.107400000000     0          
C14      C      0.339100000000     0.614900000000     0.010800000000     0          
H4       H      0.326000000000     0.635200000000     0.016600000000     0          
O10      O      0.096000000000     0.258600000000     0.937400000000     0          
C15      C      0.083100000000     0.286150000000     0.912600000000     0          
C16      C      0.107500000000     0.312410000000     0.966900000000     0          
C17      C      0.094600000000     0.342800000000     0.943600000000     0          
H5       H      0.068100000000     0.346700000000     0.898200000000     0          
C18      C      0.166400000000     0.332500000000     0.087700000000     0          
H6       H      0.188300000000     0.328700000000     0.140800000000     0          
C19      C      0.315800000000     0.591600000000     0.062900000000     0          
H7       H      0.289200000000     0.596600000000     0.107300000000     0          
C20      C      0.144600000000     0.307900000000     0.041300000000     0          
H8       H      0.154400000000     0.287600000000     0.058900000000     0          
C21      C      0.121500000000     0.368300000000     0.988100000000     0          
H9       H      0.114500000000     0.388700000000     0.968300000000     0          
Zr3      Zr     0.929510000000     0.789420000000     0.378560000000     0          
O1       O      0.552200000000     0.205930000000     0.347500000000     0          
O2       O      0.946300000000     0.872990000000     0.345300000000     0          
O7       O      0.898000000000     0.836910000000     0.423100000000     0          
C1       C      0.764800000000     0.011470000000     0.697400000000     0          
C2       C      0.787000000000     0.985610000000     0.644600000000     0          
C3       C      0.743800000000     0.036820000000     0.650100000000     0          
H1       H      0.743300000000     0.036800000000     0.582700000000     0          
C4       C      0.910200000000     0.864900000000     0.402500000000     0          
C5       C      0.830400000000     0.938680000000     0.551600000000     0          
C6       C      0.723000000000     0.062950000000     0.699600000000     0          
C7       C      0.658000000000     0.137400000000     0.560800000000     0          
C8       C      0.806900000000     0.964340000000     0.603700000000     0          
C9       C      0.879800000000     0.890400000000     0.452400000000     0          
C10      C      0.891500000000     0.920700000000     0.431500000000     0          
H2       H      0.914300000000     0.925500000000     0.380600000000     0          
C11      C      0.701800000000     0.089530000000     0.647800000000     0          
C12      C      0.868500000000     0.944800000000     0.488000000000     0          
H3       H      0.880400000000     0.965200000000     0.480300000000     0          
C13      C      0.684000000000     0.111300000000     0.607400000000     0          
C14      C      0.839100000000     0.885100000000     0.510800000000     0          
H4       H      0.826000000000     0.864800000000     0.516600000000     0          
O10      O      0.596000000000     0.241400000000     0.437400000000     0          
C15      C      0.583100000000     0.213850000000     0.412600000000     0          
C16      C      0.607500000000     0.187590000000     0.466900000000     0          
C17      C      0.594600000000     0.157200000000     0.443600000000     0          
H5       H      0.568100000000     0.153300000000     0.398200000000     0          
C18      C      0.666400000000     0.167500000000     0.587700000000     0          
H6       H      0.688300000000     0.171300000000     0.640800000000     0          
C19      C      0.815800000000     0.908400000000     0.562900000000     0          
H7       H      0.789200000000     0.903400000000     0.607300000000     0          
C20      C      0.644600000000     0.192100000000     0.541300000000     0          
H8       H      0.654400000000     0.212400000000     0.558900000000     0          
C21      C      0.621500000000     0.131700000000     0.488100000000     0          
H9       H      0.614500000000     0.111300000000     0.468300000000     0          
Zr1      Zr     0.000000000000     0.732250000000     0.250000000000     0          
Zr2      Zr     0.000000000000     0.846700000000     0.250000000000     0          
O3       O      0.938600000000     0.813820000000     0.250000000000     0          
O4       O      0.921200000000     0.758420000000     0.250000000000     0          
O5       O      0.000000000000     0.763720000000     0.364300000000     0          
O6       O      0.000000000000     0.820080000000     0.395700000000     0          
Zr3      Zr     0.070490000000     0.210580000000     0.878560000000     0          
O1       O      0.447800000000     0.794070000000     0.847500000000     0          
O2       O      0.053700000000     0.127010000000     0.845300000000     0          
O7       O      0.102000000000     0.163090000000     0.923100000000     0          
C1       C      0.235200000000     0.988530000000     0.197400000000     0          
C2       C      0.213000000000     0.014390000000     0.144600000000     0          
C3       C      0.256200000000     0.963180000000     0.150100000000     0          
H1       H      0.256700000000     0.963200000000     0.082700000000     0          
C4       C      0.089800000000     0.135100000000     0.902500000000     0          
C5       C      0.169600000000     0.061320000000     0.051600000000     0          
C6       C      0.277000000000     0.937050000000     0.199600000000     0          
C7       C      0.342000000000     0.862600000000     0.060800000000     0          
C8       C      0.193100000000     0.035660000000     0.103700000000     0          
C9       C      0.120200000000     0.109600000000     0.952400000000     0          
C10      C      0.108500000000     0.079300000000     0.931500000000     0          
H2       H      0.085700000000     0.074500000000     0.880600000000     0          
C11      C      0.298200000000     0.910470000000     0.147800000000     0          
C12      C      0.131500000000     0.055200000000     0.988000000000     0          
H3       H      0.119600000000     0.034800000000     0.980300000000     0          
C13      C      0.316000000000     0.888700000000     0.107400000000     0          
C14      C      0.160900000000     0.114900000000     0.010800000000     0          
H4       H      0.174000000000     0.135200000000     0.016600000000     0          
O10      O      0.404000000000     0.758600000000     0.937400000000     0          
C15      C      0.416900000000     0.786150000000     0.912600000000     0          
C16      C      0.392500000000     0.812410000000     0.966900000000     0          
C17      C      0.405400000000     0.842800000000     0.943600000000     0          
H5       H      0.431900000000     0.846700000000     0.898200000000     0          
C18      C      0.333600000000     0.832500000000     0.087700000000     0          
H6       H      0.311700000000     0.828700000000     0.140800000000     0          
C19      C      0.184200000000     0.091600000000     0.062900000000     0          
H7       H      0.210800000000     0.096600000000     0.107300000000     0          
C20      C      0.355400000000     0.807900000000     0.041300000000     0          
H8       H      0.345600000000     0.787600000000     0.058900000000     0          
C21      C      0.378500000000     0.868300000000     0.988100000000     0          
H9       H      0.385500000000     0.888700000000     0.968300000000     0          
Zr1      Zr     0.000000000000     0.267750000000     0.750000000000     0          
Zr2      Zr     0.000000000000     0.153300000000     0.750000000000     0          
O3       O      0.061400000000     0.186180000000     0.750000000000     0          
O4       O      0.078800000000     0.241580000000     0.750000000000     0          
O5       O      0.000000000000     0.236280000000     0.864300000000     0          
O6       O      0.000000000000     0.179920000000     0.895700000000     0          
Zr3      Zr     0.929510000000     0.210580000000     0.621440000000     0          
O1       O      0.552200000000     0.794070000000     0.652500000000     0          
O2       O      0.946300000000     0.127010000000     0.654700000000     0          
O7       O      0.898000000000     0.163090000000     0.576900000000     0          
C1       C      0.764800000000     0.988530000000     0.302600000000     0          
C2       C      0.787000000000     0.014390000000     0.355400000000     0          
C3       C      0.743800000000     0.963180000000     0.349900000000     0          
H1       H      0.743300000000     0.963200000000     0.417300000000     0          
C4       C      0.910200000000     0.135100000000     0.597500000000     0          
C5       C      0.830400000000     0.061320000000     0.448400000000     0          
C6       C      0.723000000000     0.937050000000     0.300400000000     0          
C7       C      0.658000000000     0.862600000000     0.439200000000     0          
C8       C      0.806900000000     0.035660000000     0.396300000000     0          
C9       C      0.879800000000     0.109600000000     0.547600000000     0          
C10      C      0.891500000000     0.079300000000     0.568500000000     0          
H2       H      0.914300000000     0.074500000000     0.619400000000     0          
C11      C      0.701800000000     0.910470000000     0.352200000000     0          
C12      C      0.868500000000     0.055200000000     0.512000000000     0          
H3       H      0.880400000000     0.034800000000     0.519700000000     0          
C13      C      0.684000000000     0.888700000000     0.392600000000     0          
C14      C      0.839100000000     0.114900000000     0.489200000000     0          
H4       H      0.826000000000     0.135200000000     0.483400000000     0          
O10      O      0.596000000000     0.758600000000     0.562600000000     0          
C15      C      0.583100000000     0.786150000000     0.587400000000     0          
C16      C      0.607500000000     0.812410000000     0.533100000000     0          
C17      C      0.594600000000     0.842800000000     0.556400000000     0          
H5       H      0.568100000000     0.846700000000     0.601800000000     0          
C18      C      0.666400000000     0.832500000000     0.412300000000     0          
H6       H      0.688300000000     0.828700000000     0.359200000000     0          
C19      C      0.815800000000     0.091600000000     0.437100000000     0          
H7       H      0.789200000000     0.096600000000     0.392700000000     0          
C20      C      0.644600000000     0.807900000000     0.458700000000     0          
H8       H      0.654400000000     0.787600000000     0.441100000000     0          
C21      C      0.621500000000     0.868300000000     0.511900000000     0          
H9       H      0.614500000000     0.888700000000     0.531700000000     0          
O3       O      0.938600000000     0.186180000000     0.750000000000     0          
O4       O      0.921200000000     0.241580000000     0.750000000000     0          
O5       O      0.000000000000     0.236280000000     0.635700000000     0          
O6       O      0.000000000000     0.179920000000     0.604300000000     0          
Zr3      Zr     0.070490000000     0.789420000000     0.121440000000     0          
O1       O      0.447800000000     0.205930000000     0.152500000000     0          
O2       O      0.053700000000     0.872990000000     0.154700000000     0          
O7       O      0.102000000000     0.836910000000     0.076900000000     0          
C1       C      0.235200000000     0.011470000000     0.802600000000     0          
C2       C      0.213000000000     0.985610000000     0.855400000000     0          
C3       C      0.256200000000     0.036820000000     0.849900000000     0          
H1       H      0.256700000000     0.036800000000     0.917300000000     0          
C4       C      0.089800000000     0.864900000000     0.097500000000     0          
C5       C      0.169600000000     0.938680000000     0.948400000000     0          
C6       C      0.277000000000     0.062950000000     0.800400000000     0          
C7       C      0.342000000000     0.137400000000     0.939200000000     0          
C8       C      0.193100000000     0.964340000000     0.896300000000     0          
C9       C      0.120200000000     0.890400000000     0.047600000000     0          
C10      C      0.108500000000     0.920700000000     0.068500000000     0          
H2       H      0.085700000000     0.925500000000     0.119400000000     0          
C11      C      0.298200000000     0.089530000000     0.852200000000     0          
C12      C      0.131500000000     0.944800000000     0.012000000000     0          
H3       H      0.119600000000     0.965200000000     0.019700000000     0          
C13      C      0.316000000000     0.111300000000     0.892600000000     0          
C14      C      0.160900000000     0.885100000000     0.989200000000     0          
H4       H      0.174000000000     0.864800000000     0.983400000000     0          
O10      O      0.404000000000     0.241400000000     0.062600000000     0          
C15      C      0.416900000000     0.213850000000     0.087400000000     0          
C16      C      0.392500000000     0.187590000000     0.033100000000     0          
C17      C      0.405400000000     0.157200000000     0.056400000000     0          
H5       H      0.431900000000     0.153300000000     0.101800000000     0          
C18      C      0.333600000000     0.167500000000     0.912300000000     0          
H6       H      0.311700000000     0.171300000000     0.859200000000     0          
C19      C      0.184200000000     0.908400000000     0.937100000000     0          
H7       H      0.210800000000     0.903400000000     0.892700000000     0          
C20      C      0.355400000000     0.192100000000     0.958700000000     0          
H8       H      0.345600000000     0.212400000000     0.941100000000     0          
C21      C      0.378500000000     0.131700000000     0.011900000000     0          
H9       H      0.385500000000     0.111300000000     0.031700000000     0          
O3       O      0.061400000000     0.813820000000     0.250000000000     0          
O4       O      0.078800000000     0.758420000000     0.250000000000     0          
O5       O      0.000000000000     0.763720000000     0.135700000000     0          
O6       O      0.000000000000     0.820080000000     0.104300000000     0          
Zr3      Zr     0.070490000000     0.210580000000     0.621440000000     0          
O1       O      0.447800000000     0.794070000000     0.652500000000     0          
O2       O      0.053700000000     0.127010000000     0.654700000000     0          
O7       O      0.102000000000     0.163090000000     0.576900000000     0          
C1       C      0.235200000000     0.988530000000     0.302600000000     0          
C2       C      0.213000000000     0.014390000000     0.355400000000     0          
C3       C      0.256200000000     0.963180000000     0.349900000000     0          
H1       H      0.256700000000     0.963200000000     0.417300000000     0          
C4       C      0.089800000000     0.135100000000     0.597500000000     0          
C5       C      0.169600000000     0.061320000000     0.448400000000     0          
C6       C      0.277000000000     0.937050000000     0.300400000000     0          
C7       C      0.342000000000     0.862600000000     0.439200000000     0          
C8       C      0.193100000000     0.035660000000     0.396300000000     0          
C9       C      0.120200000000     0.109600000000     0.547600000000     0          
C10      C      0.108500000000     0.079300000000     0.568500000000     0          
H2       H      0.085700000000     0.074500000000     0.619400000000     0          
C11      C      0.298200000000     0.910470000000     0.352200000000     0          
C12      C      0.131500000000     0.055200000000     0.512000000000     0          
H3       H      0.119600000000     0.034800000000     0.519700000000     0          
C13      C      0.316000000000     0.888700000000     0.392600000000     0          
C14      C      0.160900000000     0.114900000000     0.489200000000     0          
H4       H      0.174000000000     0.135200000000     0.483400000000     0          
O10      O      0.404000000000     0.758600000000     0.562600000000     0          
C15      C      0.416900000000     0.786150000000     0.587400000000     0          
C16      C      0.392500000000     0.812410000000     0.533100000000     0          
C17      C      0.405400000000     0.842800000000     0.556400000000     0          
H5       H      0.431900000000     0.846700000000     0.601800000000     0          
C18      C      0.333600000000     0.832500000000     0.412300000000     0          
H6       H      0.311700000000     0.828700000000     0.359200000000     0          
C19      C      0.184200000000     0.091600000000     0.437100000000     0          
H7       H      0.210800000000     0.096600000000     0.392700000000     0          
C20      C      0.355400000000     0.807900000000     0.458700000000     0          
H8       H      0.345600000000     0.787600000000     0.441100000000     0          
C21      C      0.378500000000     0.868300000000     0.511900000000     0          
H9       H      0.385500000000     0.888700000000     0.531700000000     0          
Zr3      Zr     0.929510000000     0.789420000000     0.121440000000     0          
O1       O      0.552200000000     0.205930000000     0.152500000000     0          
O2       O      0.946300000000     0.872990000000     0.154700000000     0          
O7       O      0.898000000000     0.836910000000     0.076900000000     0          
C1       C      0.764800000000     0.011470000000     0.802600000000     0          
C2       C      0.787000000000     0.985610000000     0.855400000000     0          
C3       C      0.743800000000     0.036820000000     0.849900000000     0          
H1       H      0.743300000000     0.036800000000     0.917300000000     0          
C4       C      0.910200000000     0.864900000000     0.097500000000     0          
C5       C      0.830400000000     0.938680000000     0.948400000000     0          
C6       C      0.723000000000     0.062950000000     0.800400000000     0          
C7       C      0.658000000000     0.137400000000     0.939200000000     0          
C8       C      0.806900000000     0.964340000000     0.896300000000     0          
C9       C      0.879800000000     0.890400000000     0.047600000000     0          
C10      C      0.891500000000     0.920700000000     0.068500000000     0          
H2       H      0.914300000000     0.925500000000     0.119400000000     0          
C11      C      0.701800000000     0.089530000000     0.852200000000     0          
C12      C      0.868500000000     0.944800000000     0.012000000000     0          
H3       H      0.880400000000     0.965200000000     0.019700000000     0          
C13      C      0.684000000000     0.111300000000     0.892600000000     0          
C14      C      0.839100000000     0.885100000000     0.989200000000     0          
H4       H      0.826000000000     0.864800000000     0.983400000000     0          
O10      O      0.596000000000     0.241400000000     0.062600000000     0          
C15      C      0.583100000000     0.213850000000     0.087400000000     0          
C16      C      0.607500000000     0.187590000000     0.033100000000     0          
C17      C      0.594600000000     0.157200000000     0.056400000000     0          
H5       H      0.568100000000     0.153300000000     0.101800000000     0          
C18      C      0.666400000000     0.167500000000     0.912300000000     0          
H6       H      0.688300000000     0.171300000000     0.859200000000     0          
C19      C      0.815800000000     0.908400000000     0.937100000000     0          
H7       H      0.789200000000     0.903400000000     0.892700000000     0          
C20      C      0.644600000000     0.192100000000     0.958700000000     0          
H8       H      0.654400000000     0.212400000000     0.941100000000     0          
C21      C      0.621500000000     0.131700000000     0.011900000000     0          
H9       H      0.614500000000     0.111300000000     0.031700000000     0          
Zr3      Zr     0.070490000000     0.789420000000     0.378560000000     0          
O1       O      0.447800000000     0.205930000000     0.347500000000     0          
O2       O      0.053700000000     0.872990000000     0.345300000000     0          
O7       O      0.102000000000     0.836910000000     0.423100000000     0          
C1       C      0.235200000000     0.011470000000     0.697400000000     0          
C2       C      0.213000000000     0.985610000000     0.644600000000     0          
C3       C      0.256200000000     0.036820000000     0.650100000000     0          
H1       H      0.256700000000     0.036800000000     0.582700000000     0          
C4       C      0.089800000000     0.864900000000     0.402500000000     0          
C5       C      0.169600000000     0.938680000000     0.551600000000     0          
C6       C      0.277000000000     0.062950000000     0.699600000000     0          
C7       C      0.342000000000     0.137400000000     0.560800000000     0          
C8       C      0.193100000000     0.964340000000     0.603700000000     0          
C9       C      0.120200000000     0.890400000000     0.452400000000     0          
C10      C      0.108500000000     0.920700000000     0.431500000000     0          
H2       H      0.085700000000     0.925500000000     0.380600000000     0          
C11      C      0.298200000000     0.089530000000     0.647800000000     0          
C12      C      0.131500000000     0.944800000000     0.488000000000     0          
H3       H      0.119600000000     0.965200000000     0.480300000000     0          
C13      C      0.316000000000     0.111300000000     0.607400000000     0          
C14      C      0.160900000000     0.885100000000     0.510800000000     0          
H4       H      0.174000000000     0.864800000000     0.516600000000     0          
O10      O      0.404000000000     0.241400000000     0.437400000000     0          
C15      C      0.416900000000     0.213850000000     0.412600000000     0          
C16      C      0.392500000000     0.187590000000     0.466900000000     0          
C17      C      0.405400000000     0.157200000000     0.443600000000     0          
H5       H      0.431900000000     0.153300000000     0.398200000000     0          
C18      C      0.333600000000     0.167500000000     0.587700000000     0          
H6       H      0.311700000000     0.171300000000     0.640800000000     0          
C19      C      0.184200000000     0.908400000000     0.562900000000     0          
H7       H      0.210800000000     0.903400000000     0.607300000000     0          
C20      C      0.355400000000     0.192100000000     0.541300000000     0          
H8       H      0.345600000000     0.212400000000     0.558900000000     0          
C21      C      0.378500000000     0.131700000000     0.488100000000     0          
H9       H      0.385500000000     0.111300000000     0.468300000000     0          
Zr3      Zr     0.929510000000     0.210580000000     0.878560000000     0          
O1       O      0.552200000000     0.794070000000     0.847500000000     0          
O2       O      0.946300000000     0.127010000000     0.845300000000     0          
O7       O      0.898000000000     0.163090000000     0.923100000000     0          
C1       C      0.764800000000     0.988530000000     0.197400000000     0          
C2       C      0.787000000000     0.014390000000     0.144600000000     0          
C3       C      0.743800000000     0.963180000000     0.150100000000     0          
H1       H      0.743300000000     0.963200000000     0.082700000000     0          
C4       C      0.910200000000     0.135100000000     0.902500000000     0          
C5       C      0.830400000000     0.061320000000     0.051600000000     0          
C6       C      0.723000000000     0.937050000000     0.199600000000     0          
C7       C      0.658000000000     0.862600000000     0.060800000000     0          
C8       C      0.806900000000     0.035660000000     0.103700000000     0          
C9       C      0.879800000000     0.109600000000     0.952400000000     0          
C10      C      0.891500000000     0.079300000000     0.931500000000     0          
H2       H      0.914300000000     0.074500000000     0.880600000000     0          
C11      C      0.701800000000     0.910470000000     0.147800000000     0          
C12      C      0.868500000000     0.055200000000     0.988000000000     0          
H3       H      0.880400000000     0.034800000000     0.980300000000     0          
C13      C      0.684000000000     0.888700000000     0.107400000000     0          
C14      C      0.839100000000     0.114900000000     0.010800000000     0          
H4       H      0.826000000000     0.135200000000     0.016600000000     0          
O10      O      0.596000000000     0.758600000000     0.937400000000     0          
C15      C      0.583100000000     0.786150000000     0.912600000000     0          
C16      C      0.607500000000     0.812410000000     0.966900000000     0          
C17      C      0.594600000000     0.842800000000     0.943600000000     0          
H5       H      0.568100000000     0.846700000000     0.898200000000     0          
C18      C      0.666400000000     0.832500000000     0.087700000000     0          
H6       H      0.688300000000     0.828700000000     0.140800000000     0          
C19      C      0.815800000000     0.091600000000     0.062900000000     0          
H7       H      0.789200000000     0.096600000000     0.107300000000     0          
C20      C      0.644600000000     0.807900000000     0.041300000000     0          
H8       H      0.654400000000     0.787600000000     0.058900000000     0          
C21      C      0.621500000000     0.868300000000     0.988100000000     0          
H9       H      0.614500000000     0.888700000000     0.968300000000     0          


