data_RIBRUS

_audit_creation_method RASPA-1.0
_audit_creation_date 2020-11-2
_audit_author_name 'Rocio Bueno-Perez'

_cell_length_a    16.6619
_cell_length_b    32.7171
_cell_length_c    35.7812
_cell_angle_alpha 90
_cell_angle_beta  90
_cell_angle_gamma 90
_cell_volume      19505.4

_symmetry_cell_setting          triclinic
_symmetry_space_group_name_Hall 'P 1'
_symmetry_space_group_name_H-M  'P 1'
_symmetry_Int_Tables_number     1

_symmetry_equiv_pos_as_xyz 'x,y,z'

loop_
_atom_site_label
_atom_site_type_symbol
_atom_site_fract_x
_atom_site_fract_y
_atom_site_fract_z
_atom_site_charge
O1       O      0.420700000000     0.459670000000     0.401040000000     0          
O2       O      0.352900000000     0.421950000000     0.442600000000     0          
C3       C      0.271300000000     0.336600000000     0.282370000000     0          
C4       C      0.298100000000     0.359900000000     0.315910000000     0          
C5       C      0.269700000000     0.294180000000     0.282140000000     0          
C6       C      0.268400000000     0.350830000000     0.351530000000     0          
H7       H      0.223180000000     0.325020000000     0.355350000000     0          
C8       C      0.375500000000     0.430940000000     0.409920000000     0          
C9       C      0.294100000000     0.373270000000     0.382010000000     0          
H10      H      0.271740000000     0.365270000000     0.411220000000     0          
C11      C      0.346100000000     0.405070000000     0.377920000000     0          
C12      C      0.351300000000     0.391790000000     0.312040000000     0          
H13      H      0.375980000000     0.399910000000     0.283270000000     0          
C14      C      0.376000000000     0.414530000000     0.342310000000     0          
H15      H      0.420290000000     0.440720000000     0.338280000000     0          
O16      O      0.420700000000     0.959670000000     0.901040000000     0          
O17      O      0.352900000000     0.921950000000     0.942600000000     0          
C18      C      0.271300000000     0.836600000000     0.782370000000     0          
C19      C      0.298100000000     0.859900000000     0.815910000000     0          
C20      C      0.269700000000     0.794180000000     0.782140000000     0          
C21      C      0.268400000000     0.850830000000     0.851530000000     0          
H22      H      0.223180000000     0.825020000000     0.855350000000     0          
C23      C      0.375500000000     0.930940000000     0.909920000000     0          
C24      C      0.294100000000     0.873270000000     0.882010000000     0          
H25      H      0.271740000000     0.865270000000     0.911220000000     0          
C26      C      0.346100000000     0.905070000000     0.877920000000     0          
C27      C      0.351300000000     0.891790000000     0.812040000000     0          
H28      H      0.375980000000     0.899910000000     0.783270000000     0          
C29      C      0.376000000000     0.914530000000     0.842310000000     0          
H30      H      0.420290000000     0.940720000000     0.838280000000     0          
O31      O      0.920700000000     0.459670000000     0.901040000000     0          
O32      O      0.852900000000     0.421950000000     0.942600000000     0          
C33      C      0.771300000000     0.336600000000     0.782370000000     0          
C34      C      0.798100000000     0.359900000000     0.815910000000     0          
C35      C      0.769700000000     0.294180000000     0.782140000000     0          
C36      C      0.768400000000     0.350830000000     0.851530000000     0          
H37      H      0.723180000000     0.325020000000     0.855350000000     0          
C38      C      0.875500000000     0.430940000000     0.909920000000     0          
C39      C      0.794100000000     0.373270000000     0.882010000000     0          
H40      H      0.771740000000     0.365270000000     0.911220000000     0          
C41      C      0.846100000000     0.405070000000     0.877920000000     0          
C42      C      0.851300000000     0.391790000000     0.812040000000     0          
H43      H      0.875980000000     0.399910000000     0.783270000000     0          
C44      C      0.876000000000     0.414530000000     0.842310000000     0          
H45      H      0.920290000000     0.440720000000     0.838280000000     0          
O46      O      0.920700000000     0.959670000000     0.401040000000     0          
O47      O      0.852900000000     0.921950000000     0.442600000000     0          
C48      C      0.771300000000     0.836600000000     0.282370000000     0          
C49      C      0.798100000000     0.859900000000     0.315910000000     0          
C50      C      0.769700000000     0.794180000000     0.282140000000     0          
C51      C      0.768400000000     0.850830000000     0.351530000000     0          
H52      H      0.723180000000     0.825020000000     0.355350000000     0          
C53      C      0.875500000000     0.930940000000     0.409920000000     0          
C54      C      0.794100000000     0.873270000000     0.382010000000     0          
H55      H      0.771740000000     0.865270000000     0.411220000000     0          
C56      C      0.846100000000     0.905070000000     0.377920000000     0          
C57      C      0.851300000000     0.891790000000     0.312040000000     0          
H58      H      0.875980000000     0.899910000000     0.283270000000     0          
C59      C      0.876000000000     0.914530000000     0.342310000000     0          
H60      H      0.920290000000     0.940720000000     0.338280000000     0          
O61      O      0.579300000000     0.540330000000     0.401040000000     0          
O62      O      0.647100000000     0.578050000000     0.442600000000     0          
C63      C      0.728700000000     0.663400000000     0.282370000000     0          
C64      C      0.701900000000     0.640100000000     0.315910000000     0          
C65      C      0.730300000000     0.705820000000     0.282140000000     0          
C66      C      0.731600000000     0.649170000000     0.351530000000     0          
H67      H      0.776820000000     0.674980000000     0.355350000000     0          
C68      C      0.624500000000     0.569060000000     0.409920000000     0          
C69      C      0.705900000000     0.626730000000     0.382010000000     0          
H70      H      0.728260000000     0.634730000000     0.411220000000     0          
C71      C      0.653900000000     0.594930000000     0.377920000000     0          
C72      C      0.648700000000     0.608210000000     0.312040000000     0          
H73      H      0.624020000000     0.600090000000     0.283270000000     0          
C74      C      0.624000000000     0.585470000000     0.342310000000     0          
H75      H      0.579710000000     0.559280000000     0.338280000000     0          
O76      O      0.579300000000     0.040330000000     0.901040000000     0          
O77      O      0.647100000000     0.078050000000     0.942600000000     0          
C78      C      0.728700000000     0.163400000000     0.782370000000     0          
C79      C      0.701900000000     0.140100000000     0.815910000000     0          
C80      C      0.730300000000     0.205820000000     0.782140000000     0          
C81      C      0.731600000000     0.149170000000     0.851530000000     0          
H82      H      0.776820000000     0.174980000000     0.855350000000     0          
C83      C      0.624500000000     0.069060000000     0.909920000000     0          
C84      C      0.705900000000     0.126730000000     0.882010000000     0          
H85      H      0.728260000000     0.134730000000     0.911220000000     0          
C86      C      0.653900000000     0.094930000000     0.877920000000     0          
C87      C      0.648700000000     0.108210000000     0.812040000000     0          
H88      H      0.624020000000     0.100090000000     0.783270000000     0          
C89      C      0.624000000000     0.085470000000     0.842310000000     0          
H90      H      0.579710000000     0.059280000000     0.838280000000     0          
O91      O      0.079300000000     0.540330000000     0.901040000000     0          
O92      O      0.147100000000     0.578050000000     0.942600000000     0          
C93      C      0.228700000000     0.663400000000     0.782370000000     0          
C94      C      0.201900000000     0.640100000000     0.815910000000     0          
C95      C      0.230300000000     0.705820000000     0.782140000000     0          
C96      C      0.231600000000     0.649170000000     0.851530000000     0          
H97      H      0.276820000000     0.674980000000     0.855350000000     0          
C98      C      0.124500000000     0.569060000000     0.909920000000     0          
C99      C      0.205900000000     0.626730000000     0.882010000000     0          
H100     H      0.228260000000     0.634730000000     0.911220000000     0          
C101     C      0.153900000000     0.594930000000     0.877920000000     0          
C102     C      0.148700000000     0.608210000000     0.812040000000     0          
H103     H      0.124020000000     0.600090000000     0.783270000000     0          
C104     C      0.124000000000     0.585470000000     0.842310000000     0          
H105     H      0.079710000000     0.559280000000     0.838280000000     0          
O106     O      0.079300000000     0.040330000000     0.401040000000     0          
O107     O      0.147100000000     0.078050000000     0.442600000000     0          
C108     C      0.228700000000     0.163400000000     0.282370000000     0          
C109     C      0.201900000000     0.140100000000     0.315910000000     0          
C110     C      0.230300000000     0.205820000000     0.282140000000     0          
C111     C      0.231600000000     0.149170000000     0.351530000000     0          
H112     H      0.276820000000     0.174980000000     0.355350000000     0          
C113     C      0.124500000000     0.069060000000     0.409920000000     0          
C114     C      0.205900000000     0.126730000000     0.382010000000     0          
H115     H      0.228260000000     0.134730000000     0.411220000000     0          
C116     C      0.153900000000     0.094930000000     0.377920000000     0          
C117     C      0.148700000000     0.108210000000     0.312040000000     0          
H118     H      0.124020000000     0.100090000000     0.283270000000     0          
C119     C      0.124000000000     0.085470000000     0.342310000000     0          
H120     H      0.079710000000     0.059280000000     0.338280000000     0          
O121     O      0.579300000000     0.459670000000     0.598960000000     0          
O122     O      0.647100000000     0.421950000000     0.557400000000     0          
C123     C      0.728700000000     0.336600000000     0.717630000000     0          
C124     C      0.701900000000     0.359900000000     0.684090000000     0          
C125     C      0.730300000000     0.294180000000     0.717860000000     0          
C126     C      0.731600000000     0.350830000000     0.648470000000     0          
H127     H      0.776820000000     0.325020000000     0.644650000000     0          
C128     C      0.624500000000     0.430940000000     0.590080000000     0          
C129     C      0.705900000000     0.373270000000     0.617990000000     0          
H130     H      0.728260000000     0.365270000000     0.588780000000     0          
C131     C      0.653900000000     0.405070000000     0.622080000000     0          
C132     C      0.648700000000     0.391790000000     0.687960000000     0          
H133     H      0.624020000000     0.399910000000     0.716730000000     0          
C134     C      0.624000000000     0.414530000000     0.657690000000     0          
H135     H      0.579710000000     0.440720000000     0.661720000000     0          
O136     O      0.579300000000     0.959670000000     0.098960000000     0          
O137     O      0.647100000000     0.921950000000     0.057400000000     0          
C138     C      0.728700000000     0.836600000000     0.217630000000     0          
C139     C      0.701900000000     0.859900000000     0.184090000000     0          
C140     C      0.730300000000     0.794180000000     0.217860000000     0          
C141     C      0.731600000000     0.850830000000     0.148470000000     0          
H142     H      0.776820000000     0.825020000000     0.144650000000     0          
C143     C      0.624500000000     0.930940000000     0.090080000000     0          
C144     C      0.705900000000     0.873270000000     0.117990000000     0          
H145     H      0.728260000000     0.865270000000     0.088780000000     0          
C146     C      0.653900000000     0.905070000000     0.122080000000     0          
C147     C      0.648700000000     0.891790000000     0.187960000000     0          
H148     H      0.624020000000     0.899910000000     0.216730000000     0          
C149     C      0.624000000000     0.914530000000     0.157690000000     0          
H150     H      0.579710000000     0.940720000000     0.161720000000     0          
O151     O      0.079300000000     0.459670000000     0.098960000000     0          
O152     O      0.147100000000     0.421950000000     0.057400000000     0          
C153     C      0.228700000000     0.336600000000     0.217630000000     0          
C154     C      0.201900000000     0.359900000000     0.184090000000     0          
C155     C      0.230300000000     0.294180000000     0.217860000000     0          
C156     C      0.231600000000     0.350830000000     0.148470000000     0          
H157     H      0.276820000000     0.325020000000     0.144650000000     0          
C158     C      0.124500000000     0.430940000000     0.090080000000     0          
C159     C      0.205900000000     0.373270000000     0.117990000000     0          
H160     H      0.228260000000     0.365270000000     0.088780000000     0          
C161     C      0.153900000000     0.405070000000     0.122080000000     0          
C162     C      0.148700000000     0.391790000000     0.187960000000     0          
H163     H      0.124020000000     0.399910000000     0.216730000000     0          
C164     C      0.124000000000     0.414530000000     0.157690000000     0          
H165     H      0.079710000000     0.440720000000     0.161720000000     0          
O166     O      0.079300000000     0.959670000000     0.598960000000     0          
O167     O      0.147100000000     0.921950000000     0.557400000000     0          
C168     C      0.228700000000     0.836600000000     0.717630000000     0          
C169     C      0.201900000000     0.859900000000     0.684090000000     0          
C170     C      0.230300000000     0.794180000000     0.717860000000     0          
C171     C      0.231600000000     0.850830000000     0.648470000000     0          
H172     H      0.276820000000     0.825020000000     0.644650000000     0          
C173     C      0.124500000000     0.930940000000     0.590080000000     0          
C174     C      0.205900000000     0.873270000000     0.617990000000     0          
H175     H      0.228260000000     0.865270000000     0.588780000000     0          
C176     C      0.153900000000     0.905070000000     0.622080000000     0          
C177     C      0.148700000000     0.891790000000     0.687960000000     0          
H178     H      0.124020000000     0.899910000000     0.716730000000     0          
C179     C      0.124000000000     0.914530000000     0.657690000000     0          
H180     H      0.079710000000     0.940720000000     0.661720000000     0          
O181     O      0.420700000000     0.540330000000     0.598960000000     0          
O182     O      0.352900000000     0.578050000000     0.557400000000     0          
C183     C      0.271300000000     0.663400000000     0.717630000000     0          
C184     C      0.298100000000     0.640100000000     0.684090000000     0          
C185     C      0.269700000000     0.705820000000     0.717860000000     0          
C186     C      0.268400000000     0.649170000000     0.648470000000     0          
H187     H      0.223180000000     0.674980000000     0.644650000000     0          
C188     C      0.375500000000     0.569060000000     0.590080000000     0          
C189     C      0.294100000000     0.626730000000     0.617990000000     0          
H190     H      0.271740000000     0.634730000000     0.588780000000     0          
C191     C      0.346100000000     0.594930000000     0.622080000000     0          
C192     C      0.351300000000     0.608210000000     0.687960000000     0          
H193     H      0.375980000000     0.600090000000     0.716730000000     0          
C194     C      0.376000000000     0.585470000000     0.657690000000     0          
H195     H      0.420290000000     0.559280000000     0.661720000000     0          
O196     O      0.420700000000     0.040330000000     0.098960000000     0          
O197     O      0.352900000000     0.078050000000     0.057400000000     0          
C198     C      0.271300000000     0.163400000000     0.217630000000     0          
C199     C      0.298100000000     0.140100000000     0.184090000000     0          
C200     C      0.269700000000     0.205820000000     0.217860000000     0          
C201     C      0.268400000000     0.149170000000     0.148470000000     0          
H202     H      0.223180000000     0.174980000000     0.144650000000     0          
C203     C      0.375500000000     0.069060000000     0.090080000000     0          
C204     C      0.294100000000     0.126730000000     0.117990000000     0          
H205     H      0.271740000000     0.134730000000     0.088780000000     0          
C206     C      0.346100000000     0.094930000000     0.122080000000     0          
C207     C      0.351300000000     0.108210000000     0.187960000000     0          
H208     H      0.375980000000     0.100090000000     0.216730000000     0          
C209     C      0.376000000000     0.085470000000     0.157690000000     0          
H210     H      0.420290000000     0.059280000000     0.161720000000     0          
O211     O      0.920700000000     0.540330000000     0.098960000000     0          
O212     O      0.852900000000     0.578050000000     0.057400000000     0          
C213     C      0.771300000000     0.663400000000     0.217630000000     0          
C214     C      0.798100000000     0.640100000000     0.184090000000     0          
C215     C      0.769700000000     0.705820000000     0.217860000000     0          
C216     C      0.768400000000     0.649170000000     0.148470000000     0          
H217     H      0.723180000000     0.674980000000     0.144650000000     0          
C218     C      0.875500000000     0.569060000000     0.090080000000     0          
C219     C      0.794100000000     0.626730000000     0.117990000000     0          
H220     H      0.771740000000     0.634730000000     0.088780000000     0          
C221     C      0.846100000000     0.594930000000     0.122080000000     0          
C222     C      0.851300000000     0.608210000000     0.187960000000     0          
H223     H      0.875980000000     0.600090000000     0.216730000000     0          
C224     C      0.876000000000     0.585470000000     0.157690000000     0          
H225     H      0.920290000000     0.559280000000     0.161720000000     0          
O226     O      0.920700000000     0.040330000000     0.598960000000     0          
O227     O      0.852900000000     0.078050000000     0.557400000000     0          
C228     C      0.771300000000     0.163400000000     0.717630000000     0          
C229     C      0.798100000000     0.140100000000     0.684090000000     0          
C230     C      0.769700000000     0.205820000000     0.717860000000     0          
C231     C      0.768400000000     0.149170000000     0.648470000000     0          
H232     H      0.723180000000     0.174980000000     0.644650000000     0          
C233     C      0.875500000000     0.069060000000     0.590080000000     0          
C234     C      0.794100000000     0.126730000000     0.617990000000     0          
H235     H      0.771740000000     0.134730000000     0.588780000000     0          
C236     C      0.846100000000     0.094930000000     0.622080000000     0          
C237     C      0.851300000000     0.108210000000     0.687960000000     0          
H238     H      0.875980000000     0.100090000000     0.716730000000     0          
C239     C      0.876000000000     0.085470000000     0.657690000000     0          
H240     H      0.920290000000     0.059280000000     0.661720000000     0          
O241     O      0.579300000000     0.540330000000     0.598960000000     0          
O242     O      0.647100000000     0.578050000000     0.557400000000     0          
C243     C      0.728700000000     0.663400000000     0.717630000000     0          
C244     C      0.701900000000     0.640100000000     0.684090000000     0          
C245     C      0.730300000000     0.705820000000     0.717860000000     0          
C246     C      0.731600000000     0.649170000000     0.648470000000     0          
H247     H      0.776820000000     0.674980000000     0.644650000000     0          
C248     C      0.624500000000     0.569060000000     0.590080000000     0          
C249     C      0.705900000000     0.626730000000     0.617990000000     0          
H250     H      0.728260000000     0.634730000000     0.588780000000     0          
C251     C      0.653900000000     0.594930000000     0.622080000000     0          
C252     C      0.648700000000     0.608210000000     0.687960000000     0          
H253     H      0.624020000000     0.600090000000     0.716730000000     0          
C254     C      0.624000000000     0.585470000000     0.657690000000     0          
H255     H      0.579710000000     0.559280000000     0.661720000000     0          
O256     O      0.579300000000     0.040330000000     0.098960000000     0          
O257     O      0.647100000000     0.078050000000     0.057400000000     0          
C258     C      0.728700000000     0.163400000000     0.217630000000     0          
C259     C      0.701900000000     0.140100000000     0.184090000000     0          
C260     C      0.730300000000     0.205820000000     0.217860000000     0          
C261     C      0.731600000000     0.149170000000     0.148470000000     0          
H262     H      0.776820000000     0.174980000000     0.144650000000     0          
C263     C      0.624500000000     0.069060000000     0.090080000000     0          
C264     C      0.705900000000     0.126730000000     0.117990000000     0          
H265     H      0.728260000000     0.134730000000     0.088780000000     0          
C266     C      0.653900000000     0.094930000000     0.122080000000     0          
C267     C      0.648700000000     0.108210000000     0.187960000000     0          
H268     H      0.624020000000     0.100090000000     0.216730000000     0          
C269     C      0.624000000000     0.085470000000     0.157690000000     0          
H270     H      0.579710000000     0.059280000000     0.161720000000     0          
O271     O      0.079300000000     0.540330000000     0.098960000000     0          
O272     O      0.147100000000     0.578050000000     0.057400000000     0          
C273     C      0.228700000000     0.663400000000     0.217630000000     0          
C274     C      0.201900000000     0.640100000000     0.184090000000     0          
C275     C      0.230300000000     0.705820000000     0.217860000000     0          
C276     C      0.231600000000     0.649170000000     0.148470000000     0          
H277     H      0.276820000000     0.674980000000     0.144650000000     0          
C278     C      0.124500000000     0.569060000000     0.090080000000     0          
C279     C      0.205900000000     0.626730000000     0.117990000000     0          
H280     H      0.228260000000     0.634730000000     0.088780000000     0          
C281     C      0.153900000000     0.594930000000     0.122080000000     0          
C282     C      0.148700000000     0.608210000000     0.187960000000     0          
H283     H      0.124020000000     0.600090000000     0.216730000000     0          
C284     C      0.124000000000     0.585470000000     0.157690000000     0          
H285     H      0.079710000000     0.559280000000     0.161720000000     0          
O286     O      0.079300000000     0.040330000000     0.598960000000     0          
O287     O      0.147100000000     0.078050000000     0.557400000000     0          
C288     C      0.228700000000     0.163400000000     0.717630000000     0          
C289     C      0.201900000000     0.140100000000     0.684090000000     0          
C290     C      0.230300000000     0.205820000000     0.717860000000     0          
C291     C      0.231600000000     0.149170000000     0.648470000000     0          
H292     H      0.276820000000     0.174980000000     0.644650000000     0          
C293     C      0.124500000000     0.069060000000     0.590080000000     0          
C294     C      0.205900000000     0.126730000000     0.617990000000     0          
H295     H      0.228260000000     0.134730000000     0.588780000000     0          
C296     C      0.153900000000     0.094930000000     0.622080000000     0          
C297     C      0.148700000000     0.108210000000     0.687960000000     0          
H298     H      0.124020000000     0.100090000000     0.716730000000     0          
C299     C      0.124000000000     0.085470000000     0.657690000000     0          
H300     H      0.079710000000     0.059280000000     0.661720000000     0          
O301     O      0.420700000000     0.459670000000     0.598960000000     0          
O302     O      0.352900000000     0.421950000000     0.557400000000     0          
C303     C      0.271300000000     0.336600000000     0.717630000000     0          
C304     C      0.298100000000     0.359900000000     0.684090000000     0          
C305     C      0.269700000000     0.294180000000     0.717860000000     0          
C306     C      0.268400000000     0.350830000000     0.648470000000     0          
H307     H      0.223180000000     0.325020000000     0.644650000000     0          
C308     C      0.375500000000     0.430940000000     0.590080000000     0          
C309     C      0.294100000000     0.373270000000     0.617990000000     0          
H310     H      0.271740000000     0.365270000000     0.588780000000     0          
C311     C      0.346100000000     0.405070000000     0.622080000000     0          
C312     C      0.351300000000     0.391790000000     0.687960000000     0          
H313     H      0.375980000000     0.399910000000     0.716730000000     0          
C314     C      0.376000000000     0.414530000000     0.657690000000     0          
H315     H      0.420290000000     0.440720000000     0.661720000000     0          
O316     O      0.420700000000     0.959670000000     0.098960000000     0          
O317     O      0.352900000000     0.921950000000     0.057400000000     0          
C318     C      0.271300000000     0.836600000000     0.217630000000     0          
C319     C      0.298100000000     0.859900000000     0.184090000000     0          
C320     C      0.269700000000     0.794180000000     0.217860000000     0          
C321     C      0.268400000000     0.850830000000     0.148470000000     0          
H322     H      0.223180000000     0.825020000000     0.144650000000     0          
C323     C      0.375500000000     0.930940000000     0.090080000000     0          
C324     C      0.294100000000     0.873270000000     0.117990000000     0          
H325     H      0.271740000000     0.865270000000     0.088780000000     0          
C326     C      0.346100000000     0.905070000000     0.122080000000     0          
C327     C      0.351300000000     0.891790000000     0.187960000000     0          
H328     H      0.375980000000     0.899910000000     0.216730000000     0          
C329     C      0.376000000000     0.914530000000     0.157690000000     0          
H330     H      0.420290000000     0.940720000000     0.161720000000     0          
O331     O      0.920700000000     0.459670000000     0.098960000000     0          
O332     O      0.852900000000     0.421950000000     0.057400000000     0          
C333     C      0.771300000000     0.336600000000     0.217630000000     0          
C334     C      0.798100000000     0.359900000000     0.184090000000     0          
C335     C      0.769700000000     0.294180000000     0.217860000000     0          
C336     C      0.768400000000     0.350830000000     0.148470000000     0          
H337     H      0.723180000000     0.325020000000     0.144650000000     0          
C338     C      0.875500000000     0.430940000000     0.090080000000     0          
C339     C      0.794100000000     0.373270000000     0.117990000000     0          
H340     H      0.771740000000     0.365270000000     0.088780000000     0          
C341     C      0.846100000000     0.405070000000     0.122080000000     0          
C342     C      0.851300000000     0.391790000000     0.187960000000     0          
H343     H      0.875980000000     0.399910000000     0.216730000000     0          
C344     C      0.876000000000     0.414530000000     0.157690000000     0          
H345     H      0.920290000000     0.440720000000     0.161720000000     0          
O346     O      0.920700000000     0.959670000000     0.598960000000     0          
O347     O      0.852900000000     0.921950000000     0.557400000000     0          
C348     C      0.771300000000     0.836600000000     0.717630000000     0          
C349     C      0.798100000000     0.859900000000     0.684090000000     0          
C350     C      0.769700000000     0.794180000000     0.717860000000     0          
C351     C      0.768400000000     0.850830000000     0.648470000000     0          
H352     H      0.723180000000     0.825020000000     0.644650000000     0          
C353     C      0.875500000000     0.930940000000     0.590080000000     0          
C354     C      0.794100000000     0.873270000000     0.617990000000     0          
H355     H      0.771740000000     0.865270000000     0.588780000000     0          
C356     C      0.846100000000     0.905070000000     0.622080000000     0          
C357     C      0.851300000000     0.891790000000     0.687960000000     0          
H358     H      0.875980000000     0.899910000000     0.716730000000     0          
C359     C      0.876000000000     0.914530000000     0.657690000000     0          
H360     H      0.920290000000     0.940720000000     0.661720000000     0          
O361     O      0.420700000000     0.540330000000     0.401040000000     0          
O362     O      0.352900000000     0.578050000000     0.442600000000     0          
C363     C      0.271300000000     0.663400000000     0.282370000000     0          
C364     C      0.298100000000     0.640100000000     0.315910000000     0          
C365     C      0.269700000000     0.705820000000     0.282140000000     0          
C366     C      0.268400000000     0.649170000000     0.351530000000     0          
H367     H      0.223180000000     0.674980000000     0.355350000000     0          
C368     C      0.375500000000     0.569060000000     0.409920000000     0          
C369     C      0.294100000000     0.626730000000     0.382010000000     0          
H370     H      0.271740000000     0.634730000000     0.411220000000     0          
C371     C      0.346100000000     0.594930000000     0.377920000000     0          
C372     C      0.351300000000     0.608210000000     0.312040000000     0          
H373     H      0.375980000000     0.600090000000     0.283270000000     0          
C374     C      0.376000000000     0.585470000000     0.342310000000     0          
H375     H      0.420290000000     0.559280000000     0.338280000000     0          
O376     O      0.420700000000     0.040330000000     0.901040000000     0          
O377     O      0.352900000000     0.078050000000     0.942600000000     0          
C378     C      0.271300000000     0.163400000000     0.782370000000     0          
C379     C      0.298100000000     0.140100000000     0.815910000000     0          
C380     C      0.269700000000     0.205820000000     0.782140000000     0          
C381     C      0.268400000000     0.149170000000     0.851530000000     0          
H382     H      0.223180000000     0.174980000000     0.855350000000     0          
C383     C      0.375500000000     0.069060000000     0.909920000000     0          
C384     C      0.294100000000     0.126730000000     0.882010000000     0          
H385     H      0.271740000000     0.134730000000     0.911220000000     0          
C386     C      0.346100000000     0.094930000000     0.877920000000     0          
C387     C      0.351300000000     0.108210000000     0.812040000000     0          
H388     H      0.375980000000     0.100090000000     0.783270000000     0          
C389     C      0.376000000000     0.085470000000     0.842310000000     0          
H390     H      0.420290000000     0.059280000000     0.838280000000     0          
O391     O      0.920700000000     0.540330000000     0.901040000000     0          
O392     O      0.852900000000     0.578050000000     0.942600000000     0          
C393     C      0.771300000000     0.663400000000     0.782370000000     0          
C394     C      0.798100000000     0.640100000000     0.815910000000     0          
C395     C      0.769700000000     0.705820000000     0.782140000000     0          
C396     C      0.768400000000     0.649170000000     0.851530000000     0          
H397     H      0.723180000000     0.674980000000     0.855350000000     0          
C398     C      0.875500000000     0.569060000000     0.909920000000     0          
C399     C      0.794100000000     0.626730000000     0.882010000000     0          
H400     H      0.771740000000     0.634730000000     0.911220000000     0          
C401     C      0.846100000000     0.594930000000     0.877920000000     0          
C402     C      0.851300000000     0.608210000000     0.812040000000     0          
H403     H      0.875980000000     0.600090000000     0.783270000000     0          
C404     C      0.876000000000     0.585470000000     0.842310000000     0          
H405     H      0.920290000000     0.559280000000     0.838280000000     0          
O406     O      0.920700000000     0.040330000000     0.401040000000     0          
O407     O      0.852900000000     0.078050000000     0.442600000000     0          
C408     C      0.771300000000     0.163400000000     0.282370000000     0          
C409     C      0.798100000000     0.140100000000     0.315910000000     0          
C410     C      0.769700000000     0.205820000000     0.282140000000     0          
C411     C      0.768400000000     0.149170000000     0.351530000000     0          
H412     H      0.723180000000     0.174980000000     0.355350000000     0          
C413     C      0.875500000000     0.069060000000     0.409920000000     0          
C414     C      0.794100000000     0.126730000000     0.382010000000     0          
H415     H      0.771740000000     0.134730000000     0.411220000000     0          
C416     C      0.846100000000     0.094930000000     0.377920000000     0          
C417     C      0.851300000000     0.108210000000     0.312040000000     0          
H418     H      0.875980000000     0.100090000000     0.283270000000     0          
C419     C      0.876000000000     0.085470000000     0.342310000000     0          
H420     H      0.920290000000     0.059280000000     0.338280000000     0          
O421     O      0.579300000000     0.459670000000     0.401040000000     0          
O422     O      0.647100000000     0.421950000000     0.442600000000     0          
C423     C      0.728700000000     0.336600000000     0.282370000000     0          
C424     C      0.701900000000     0.359900000000     0.315910000000     0          
C425     C      0.730300000000     0.294180000000     0.282140000000     0          
C426     C      0.731600000000     0.350830000000     0.351530000000     0          
H427     H      0.776820000000     0.325020000000     0.355350000000     0          
C428     C      0.624500000000     0.430940000000     0.409920000000     0          
C429     C      0.705900000000     0.373270000000     0.382010000000     0          
H430     H      0.728260000000     0.365270000000     0.411220000000     0          
C431     C      0.653900000000     0.405070000000     0.377920000000     0          
C432     C      0.648700000000     0.391790000000     0.312040000000     0          
H433     H      0.624020000000     0.399910000000     0.283270000000     0          
C434     C      0.624000000000     0.414530000000     0.342310000000     0          
H435     H      0.579710000000     0.440720000000     0.338280000000     0          
O436     O      0.579300000000     0.959670000000     0.901040000000     0          
O437     O      0.647100000000     0.921950000000     0.942600000000     0          
C438     C      0.728700000000     0.836600000000     0.782370000000     0          
C439     C      0.701900000000     0.859900000000     0.815910000000     0          
C440     C      0.730300000000     0.794180000000     0.782140000000     0          
C441     C      0.731600000000     0.850830000000     0.851530000000     0          
H442     H      0.776820000000     0.825020000000     0.855350000000     0          
C443     C      0.624500000000     0.930940000000     0.909920000000     0          
C444     C      0.705900000000     0.873270000000     0.882010000000     0          
H445     H      0.728260000000     0.865270000000     0.911220000000     0          
C446     C      0.653900000000     0.905070000000     0.877920000000     0          
C447     C      0.648700000000     0.891790000000     0.812040000000     0          
H448     H      0.624020000000     0.899910000000     0.783270000000     0          
C449     C      0.624000000000     0.914530000000     0.842310000000     0          
H450     H      0.579710000000     0.940720000000     0.838280000000     0          
O451     O      0.079300000000     0.459670000000     0.901040000000     0          
O452     O      0.147100000000     0.421950000000     0.942600000000     0          
C453     C      0.228700000000     0.336600000000     0.782370000000     0          
C454     C      0.201900000000     0.359900000000     0.815910000000     0          
C455     C      0.230300000000     0.294180000000     0.782140000000     0          
C456     C      0.231600000000     0.350830000000     0.851530000000     0          
H457     H      0.276820000000     0.325020000000     0.855350000000     0          
C458     C      0.124500000000     0.430940000000     0.909920000000     0          
C459     C      0.205900000000     0.373270000000     0.882010000000     0          
H460     H      0.228260000000     0.365270000000     0.911220000000     0          
C461     C      0.153900000000     0.405070000000     0.877920000000     0          
C462     C      0.148700000000     0.391790000000     0.812040000000     0          
H463     H      0.124020000000     0.399910000000     0.783270000000     0          
C464     C      0.124000000000     0.414530000000     0.842310000000     0          
H465     H      0.079710000000     0.440720000000     0.838280000000     0          
O466     O      0.079300000000     0.959670000000     0.401040000000     0          
O467     O      0.147100000000     0.921950000000     0.442600000000     0          
C468     C      0.228700000000     0.836600000000     0.282370000000     0          
C469     C      0.201900000000     0.859900000000     0.315910000000     0          
C470     C      0.230300000000     0.794180000000     0.282140000000     0          
C471     C      0.231600000000     0.850830000000     0.351530000000     0          
H472     H      0.276820000000     0.825020000000     0.355350000000     0          
C473     C      0.124500000000     0.930940000000     0.409920000000     0          
C474     C      0.205900000000     0.873270000000     0.382010000000     0          
H475     H      0.228260000000     0.865270000000     0.411220000000     0          
C476     C      0.153900000000     0.905070000000     0.377920000000     0          
C477     C      0.148700000000     0.891790000000     0.312040000000     0          
H478     H      0.124020000000     0.899910000000     0.283270000000     0          
C479     C      0.124000000000     0.914530000000     0.342310000000     0          
H480     H      0.079710000000     0.940720000000     0.338280000000     0          
Zr481    Zr     0.500000000000     0.500000000000     0.432090000000     0          
Zr482    Zr     0.500000000000     0.000000000000     0.932090000000     0          
Zr483    Zr     0.000000000000     0.500000000000     0.932090000000     0          
Zr484    Zr     0.000000000000     0.000000000000     0.432090000000     0          
Zr485    Zr     0.500000000000     0.500000000000     0.567910000000     0          
Zr486    Zr     0.500000000000     0.000000000000     0.067910000000     0          
Zr487    Zr     0.000000000000     0.500000000000     0.067910000000     0          
Zr488    Zr     0.000000000000     0.000000000000     0.567910000000     0          
Zr489    Zr     0.393770000000     0.445660000000     0.500000000000     0          
Zr490    Zr     0.393770000000     0.945660000000     0.000000000000     0          
Zr491    Zr     0.893770000000     0.445660000000     0.000000000000     0          
Zr492    Zr     0.893770000000     0.945660000000     0.500000000000     0          
Zr493    Zr     0.606230000000     0.554340000000     0.500000000000     0          
Zr494    Zr     0.606230000000     0.054340000000     0.000000000000     0          
Zr495    Zr     0.106230000000     0.554340000000     0.000000000000     0          
Zr496    Zr     0.106230000000     0.054340000000     0.500000000000     0          
Zr497    Zr     0.606230000000     0.445660000000     0.500000000000     0          
Zr498    Zr     0.606230000000     0.945660000000     0.000000000000     0          
Zr499    Zr     0.106230000000     0.445660000000     0.000000000000     0          
Zr500    Zr     0.106230000000     0.945660000000     0.500000000000     0          
Zr501    Zr     0.393770000000     0.554340000000     0.500000000000     0          
Zr502    Zr     0.393770000000     0.054340000000     0.000000000000     0          
Zr503    Zr     0.893770000000     0.554340000000     0.000000000000     0          
Zr504    Zr     0.893770000000     0.054340000000     0.500000000000     0          
O505     O      0.392600000000     0.500000000000     0.466850000000     0          
O506     O      0.392600000000     0.000000000000     0.966850000000     0          
O507     O      0.892600000000     0.500000000000     0.966850000000     0          
O508     O      0.892600000000     0.000000000000     0.466850000000     0          
O509     O      0.607400000000     0.500000000000     0.466850000000     0          
O510     O      0.607400000000     0.000000000000     0.966850000000     0          
O511     O      0.107400000000     0.500000000000     0.966850000000     0          
O512     O      0.107400000000     0.000000000000     0.466850000000     0          
O513     O      0.607400000000     0.500000000000     0.533150000000     0          
O514     O      0.607400000000     0.000000000000     0.033150000000     0          
O515     O      0.107400000000     0.500000000000     0.033150000000     0          
O516     O      0.107400000000     0.000000000000     0.533150000000     0          
O517     O      0.392600000000     0.500000000000     0.533150000000     0          
O518     O      0.392600000000     0.000000000000     0.033150000000     0          
O519     O      0.892600000000     0.500000000000     0.033150000000     0          
O520     O      0.892600000000     0.000000000000     0.533150000000     0          
O521     O      0.500000000000     0.445690000000     0.466610000000     0          
O522     O      0.500000000000     0.945690000000     0.966610000000     0          
O523     O      0.000000000000     0.445690000000     0.966610000000     0          
O524     O      0.000000000000     0.945690000000     0.466610000000     0          
O525     O      0.500000000000     0.554310000000     0.466610000000     0          
O526     O      0.500000000000     0.054310000000     0.966610000000     0          
O527     O      0.000000000000     0.554310000000     0.966610000000     0          
O528     O      0.000000000000     0.054310000000     0.466610000000     0          
O529     O      0.500000000000     0.445690000000     0.533390000000     0          
O530     O      0.500000000000     0.945690000000     0.033390000000     0          
O531     O      0.000000000000     0.445690000000     0.033390000000     0          
O532     O      0.000000000000     0.945690000000     0.533390000000     0          
O533     O      0.500000000000     0.554310000000     0.533390000000     0          
O534     O      0.500000000000     0.054310000000     0.033390000000     0          
O535     O      0.000000000000     0.554310000000     0.033390000000     0          
O536     O      0.000000000000     0.054310000000     0.533390000000     0          
C537     C      0.250000000000     0.272650000000     0.250000000000     0          
C538     C      0.250000000000     0.358100000000     0.250000000000     0          
N539     N      0.250000000000     0.400600000000     0.250000000000     0          
C540     C      0.250000000000     0.772650000000     0.750000000000     0          
C541     C      0.250000000000     0.858100000000     0.750000000000     0          
N542     N      0.250000000000     0.900600000000     0.750000000000     0          
C543     C      0.750000000000     0.727350000000     0.250000000000     0          
C544     C      0.750000000000     0.641900000000     0.250000000000     0          
N545     N      0.750000000000     0.599400000000     0.250000000000     0          
C546     C      0.750000000000     0.227350000000     0.750000000000     0          
C547     C      0.750000000000     0.141900000000     0.750000000000     0          
N548     N      0.750000000000     0.099400000000     0.750000000000     0          
C549     C      0.250000000000     0.227350000000     0.250000000000     0          
C550     C      0.250000000000     0.141900000000     0.250000000000     0          
N551     N      0.250000000000     0.099400000000     0.250000000000     0          
C552     C      0.750000000000     0.272650000000     0.750000000000     0          
C553     C      0.750000000000     0.358100000000     0.750000000000     0          
N554     N      0.750000000000     0.400600000000     0.750000000000     0          
C555     C      0.750000000000     0.772650000000     0.250000000000     0          
C556     C      0.750000000000     0.858100000000     0.250000000000     0          
N557     N      0.750000000000     0.900600000000     0.250000000000     0          
C558     C      0.250000000000     0.727350000000     0.750000000000     0          
C559     C      0.250000000000     0.641900000000     0.750000000000     0          
N560     N      0.250000000000     0.599400000000     0.750000000000     0          
C561     C      0.750000000000     0.727350000000     0.750000000000     0          
C562     C      0.750000000000     0.641900000000     0.750000000000     0          
N563     N      0.750000000000     0.599400000000     0.750000000000     0          
C564     C      0.750000000000     0.227350000000     0.250000000000     0          
C565     C      0.750000000000     0.141900000000     0.250000000000     0          
N566     N      0.750000000000     0.099400000000     0.250000000000     0          
C567     C      0.250000000000     0.727350000000     0.250000000000     0          
C568     C      0.250000000000     0.641900000000     0.250000000000     0          
N569     N      0.250000000000     0.599400000000     0.250000000000     0          
C570     C      0.250000000000     0.272650000000     0.750000000000     0          
C571     C      0.250000000000     0.358100000000     0.750000000000     0          
N572     N      0.250000000000     0.400600000000     0.750000000000     0          
C573     C      0.250000000000     0.772650000000     0.250000000000     0          
C574     C      0.250000000000     0.858100000000     0.250000000000     0          
N575     N      0.250000000000     0.900600000000     0.250000000000     0          
C576     C      0.250000000000     0.227350000000     0.750000000000     0          
C577     C      0.250000000000     0.141900000000     0.750000000000     0          
N578     N      0.250000000000     0.099400000000     0.750000000000     0          
C579     C      0.750000000000     0.272650000000     0.250000000000     0          
C580     C      0.750000000000     0.358100000000     0.250000000000     0          
N581     N      0.750000000000     0.400600000000     0.250000000000     0          
C582     C      0.750000000000     0.772650000000     0.750000000000     0          
C583     C      0.750000000000     0.858100000000     0.750000000000     0          
N584     N      0.750000000000     0.900600000000     0.750000000000     0          
H585     H      0.784920000000     0.777030000000     0.308950000000     0          
H586     H      0.715080000000     0.722970000000     0.308950000000     0          
H587     H      0.715080000000     0.777030000000     0.191050000000     0          
H588     H      0.784920000000     0.722970000000     0.191050000000     0          
H589     H      0.715080000000     0.722970000000     0.691050000000     0          
H590     H      0.784920000000     0.777030000000     0.691050000000     0          
H591     H      0.784920000000     0.722970000000     0.808950000000     0          
H592     H      0.715080000000     0.777030000000     0.808950000000     0          
H593     H      0.284920000000     0.777030000000     0.808950000000     0          
H594     H      0.215080000000     0.722970000000     0.808950000000     0          
H595     H      0.215080000000     0.777030000000     0.691050000000     0          
H596     H      0.284920000000     0.722970000000     0.691050000000     0          
H597     H      0.215080000000     0.722970000000     0.191050000000     0          
H598     H      0.284920000000     0.777030000000     0.191050000000     0          
H599     H      0.284920000000     0.722970000000     0.308950000000     0          
H600     H      0.215080000000     0.777030000000     0.308950000000     0          
H601     H      0.284920000000     0.277030000000     0.308950000000     0          
H602     H      0.215080000000     0.222970000000     0.308950000000     0          
H603     H      0.215080000000     0.277030000000     0.191050000000     0          
H604     H      0.284920000000     0.222970000000     0.191050000000     0          
H605     H      0.715080000000     0.222970000000     0.191050000000     0          
H606     H      0.784920000000     0.277030000000     0.191050000000     0          
H607     H      0.784920000000     0.222970000000     0.308950000000     0          
H608     H      0.715080000000     0.277030000000     0.308950000000     0          
H609     H      0.784920000000     0.277030000000     0.808950000000     0          
H610     H      0.715080000000     0.222970000000     0.808950000000     0          
H611     H      0.715080000000     0.277030000000     0.691050000000     0          
H612     H      0.784920000000     0.222970000000     0.691050000000     0          
H613     H      0.215080000000     0.222970000000     0.691050000000     0          
H614     H      0.284920000000     0.277030000000     0.691050000000     0          
H615     H      0.284920000000     0.222970000000     0.808950000000     0          
H616     H      0.215080000000     0.277030000000     0.808950000000     0          
H617     H      0.209200000000     0.917560000000     0.731000000000     0          
H618     H      0.290800000000     0.917560000000     0.769000000000     0          
H619     H      0.709200000000     0.582440000000     0.231000000000     0          
H620     H      0.790800000000     0.582440000000     0.269000000000     0          
H621     H      0.709200000000     0.917560000000     0.231000000000     0          
H622     H      0.790800000000     0.917560000000     0.269000000000     0          
H623     H      0.209200000000     0.582440000000     0.731000000000     0          
H624     H      0.290800000000     0.582440000000     0.769000000000     0          
H625     H      0.709200000000     0.582440000000     0.731000000000     0          
H626     H      0.790800000000     0.582440000000     0.769000000000     0          
H627     H      0.209200000000     0.582440000000     0.231000000000     0          
H628     H      0.290800000000     0.582440000000     0.269000000000     0          
H629     H      0.209200000000     0.917560000000     0.231000000000     0          
H630     H      0.290800000000     0.917560000000     0.269000000000     0          
H631     H      0.709200000000     0.917560000000     0.731000000000     0          
H632     H      0.790800000000     0.917560000000     0.769000000000     0          
H633     H      0.209200000000     0.417560000000     0.231000000000     0          
H634     H      0.290800000000     0.417560000000     0.269000000000     0          
H635     H      0.709200000000     0.082440000000     0.731000000000     0          
H636     H      0.790800000000     0.082440000000     0.769000000000     0          
H637     H      0.209200000000     0.082440000000     0.231000000000     0          
H638     H      0.290800000000     0.082440000000     0.269000000000     0          
H639     H      0.709200000000     0.417560000000     0.731000000000     0          
H640     H      0.790800000000     0.417560000000     0.769000000000     0          
H641     H      0.709200000000     0.082440000000     0.231000000000     0          
H642     H      0.790800000000     0.082440000000     0.269000000000     0          
H643     H      0.209200000000     0.417560000000     0.731000000000     0          
H644     H      0.290800000000     0.417560000000     0.769000000000     0          
H645     H      0.209200000000     0.082440000000     0.731000000000     0          
H646     H      0.290800000000     0.082440000000     0.769000000000     0          
H647     H      0.709200000000     0.417560000000     0.231000000000     0          
H648     H      0.790800000000     0.417560000000     0.269000000000     0          


