data_RODJUS

_audit_creation_method RASPA-1.0
_audit_creation_date 2020-11-2
_audit_author_name 'Rocio Bueno-Perez'

_cell_length_a    15.246
_cell_length_b    15.246
_cell_length_c    60.403
_cell_angle_alpha 90
_cell_angle_beta  90
_cell_angle_gamma 90
_cell_volume      14040.1

_symmetry_cell_setting          tetragonal
_symmetry_space_group_name_Hall 'P 1'
_symmetry_space_group_name_H-M  'P 1'
_symmetry_Int_Tables_number     1

_symmetry_equiv_pos_as_xyz 'x,y,z'

loop_
_atom_site_label
_atom_site_type_symbol
_atom_site_fract_x
_atom_site_fract_y
_atom_site_fract_z
_atom_site_charge
O3       O      0.329640000000     0.401150000000     0.091690000000     0          
C1       C      0.346500000000     0.381600000000     0.071800000000     0          
O5       O      0.410350000000     0.335820000000     0.065230000000     0          
C2       C      0.283200000000     0.416300000000     0.054920000000     0          
C3       C      0.218100000000     0.474100000000     0.061490000000     0          
C4       C      0.284600000000     0.387800000000     0.033140000000     0          
C5       C      0.154100000000     0.500900000000     0.046680000000     0          
H2       H      0.217300000000     0.495000000000     0.075900000000     0          
H3       H      0.328500000000     0.349800000000     0.028400000000     0          
C6       C      0.221200000000     0.415500000000     0.018460000000     0          
C7       C      0.154600000000     0.470100000000     0.025280000000     0          
H4       H      0.110700000000     0.539800000000     0.051200000000     0          
H5       H      0.223400000000     0.397100000000     0.003800000000     0          
C8       C      0.075800000000     0.488700000000     0.011140000000     0          
Zr1      Zr     0.384080000000     0.365920000000     0.125000000000     0          
O1       O      0.500000000000     0.384600000000     0.102710000000     0          
H1       H      0.500000000000     0.441500000000     0.095000000000     0          
O2       O      0.402310000000     0.250000000000     0.107760000000     0          
Zr2      Zr     0.500000000000     0.250000000000     0.084110000000     0          
N1       N      0.000000000000     0.478700000000     0.021960000000     0          
O3       O      0.848850000000     0.079640000000     0.341690000000     0          
C1       C      0.868400000000     0.096500000000     0.321800000000     0          
O5       O      0.914180000000     0.160350000000     0.315230000000     0          
C2       C      0.833700000000     0.033200000000     0.304920000000     0          
C3       C      0.775900000000     0.968100000000     0.311490000000     0          
C4       C      0.862200000000     0.034600000000     0.283140000000     0          
C5       C      0.749100000000     0.904100000000     0.296680000000     0          
H2       H      0.755000000000     0.967300000000     0.325900000000     0          
H3       H      0.900200000000     0.078500000000     0.278400000000     0          
C6       C      0.834500000000     0.971200000000     0.268460000000     0          
C7       C      0.779900000000     0.904600000000     0.275280000000     0          
H4       H      0.710200000000     0.860700000000     0.301200000000     0          
H5       H      0.852900000000     0.973400000000     0.253800000000     0          
C8       C      0.761300000000     0.825800000000     0.261140000000     0          
Zr1      Zr     0.884080000000     0.134080000000     0.375000000000     0          
O1       O      0.865400000000     0.250000000000     0.352710000000     0          
H1       H      0.808500000000     0.250000000000     0.345000000000     0          
O2       O      0.000000000000     0.152310000000     0.357760000000     0          
Zr2      Zr     0.000000000000     0.250000000000     0.334110000000     0          
N1       N      0.771300000000     0.750000000000     0.271960000000     0          
O3       O      0.170360000000     0.598850000000     0.591690000000     0          
C1       C      0.153500000000     0.618400000000     0.571800000000     0          
O5       O      0.089650000000     0.664180000000     0.565230000000     0          
C2       C      0.216800000000     0.583700000000     0.554920000000     0          
C3       C      0.281900000000     0.525900000000     0.561490000000     0          
C4       C      0.215400000000     0.612200000000     0.533140000000     0          
C5       C      0.345900000000     0.499100000000     0.546680000000     0          
H2       H      0.282700000000     0.505000000000     0.575900000000     0          
H3       H      0.171500000000     0.650200000000     0.528400000000     0          
C6       C      0.278800000000     0.584500000000     0.518460000000     0          
C7       C      0.345400000000     0.529900000000     0.525280000000     0          
H4       H      0.389300000000     0.460200000000     0.551200000000     0          
H5       H      0.276600000000     0.602900000000     0.503800000000     0          
C8       C      0.424200000000     0.511300000000     0.511140000000     0          
Zr1      Zr     0.115920000000     0.634080000000     0.625000000000     0          
O1       O      0.000000000000     0.615400000000     0.602710000000     0          
H1       H      0.000000000000     0.558500000000     0.595000000000     0          
O2       O      0.097690000000     0.750000000000     0.607760000000     0          
Zr2      Zr     0.000000000000     0.750000000000     0.584110000000     0          
N1       N      0.500000000000     0.521300000000     0.521960000000     0          
O3       O      0.651150000000     0.920360000000     0.841690000000     0          
C1       C      0.631600000000     0.903500000000     0.821800000000     0          
O5       O      0.585820000000     0.839650000000     0.815230000000     0          
C2       C      0.666300000000     0.966800000000     0.804920000000     0          
C3       C      0.724100000000     0.031900000000     0.811490000000     0          
C4       C      0.637800000000     0.965400000000     0.783140000000     0          
C5       C      0.750900000000     0.095900000000     0.796680000000     0          
H2       H      0.745000000000     0.032700000000     0.825900000000     0          
H3       H      0.599800000000     0.921500000000     0.778400000000     0          
C6       C      0.665500000000     0.028800000000     0.768460000000     0          
C7       C      0.720100000000     0.095400000000     0.775280000000     0          
H4       H      0.789800000000     0.139300000000     0.801200000000     0          
H5       H      0.647100000000     0.026600000000     0.753800000000     0          
C8       C      0.738700000000     0.174200000000     0.761140000000     0          
Zr1      Zr     0.615920000000     0.865920000000     0.875000000000     0          
O1       O      0.634600000000     0.750000000000     0.852710000000     0          
H1       H      0.691500000000     0.750000000000     0.845000000000     0          
O2       O      0.500000000000     0.847690000000     0.857760000000     0          
Zr2      Zr     0.500000000000     0.750000000000     0.834110000000     0          
N1       N      0.728700000000     0.250000000000     0.771960000000     0          
O3       O      0.329640000000     0.598850000000     0.908310000000     0          
C1       C      0.346500000000     0.618400000000     0.928200000000     0          
O5       O      0.410350000000     0.664180000000     0.934770000000     0          
C2       C      0.283200000000     0.583700000000     0.945080000000     0          
C3       C      0.218100000000     0.525900000000     0.938510000000     0          
C4       C      0.284600000000     0.612200000000     0.966860000000     0          
C5       C      0.154100000000     0.499100000000     0.953320000000     0          
H2       H      0.217300000000     0.505000000000     0.924100000000     0          
H3       H      0.328500000000     0.650200000000     0.971600000000     0          
C6       C      0.221200000000     0.584500000000     0.981540000000     0          
C7       C      0.154600000000     0.529900000000     0.974720000000     0          
H4       H      0.110700000000     0.460200000000     0.948800000000     0          
H5       H      0.223400000000     0.602900000000     0.996200000000     0          
C8       C      0.075800000000     0.511300000000     0.988860000000     0          
Zr1      Zr     0.384080000000     0.634080000000     0.875000000000     0          
O1       O      0.500000000000     0.615400000000     0.897290000000     0          
H1       H      0.500000000000     0.558500000000     0.905000000000     0          
O2       O      0.402310000000     0.750000000000     0.892240000000     0          
Zr2      Zr     0.500000000000     0.750000000000     0.915890000000     0          
N1       N      0.000000000000     0.521300000000     0.978040000000     0          
O3       O      0.651150000000     0.079640000000     0.158310000000     0          
C1       C      0.631600000000     0.096500000000     0.178200000000     0          
O5       O      0.585820000000     0.160350000000     0.184770000000     0          
C2       C      0.666300000000     0.033200000000     0.195080000000     0          
C3       C      0.724100000000     0.968100000000     0.188510000000     0          
C4       C      0.637800000000     0.034600000000     0.216860000000     0          
C5       C      0.750900000000     0.904100000000     0.203320000000     0          
H2       H      0.745000000000     0.967300000000     0.174100000000     0          
H3       H      0.599800000000     0.078500000000     0.221600000000     0          
C6       C      0.665500000000     0.971200000000     0.231540000000     0          
C7       C      0.720100000000     0.904600000000     0.224720000000     0          
H4       H      0.789800000000     0.860700000000     0.198800000000     0          
H5       H      0.647100000000     0.973400000000     0.246200000000     0          
C8       C      0.738700000000     0.825800000000     0.238860000000     0          
Zr1      Zr     0.615920000000     0.134080000000     0.125000000000     0          
O1       O      0.634600000000     0.250000000000     0.147290000000     0          
H1       H      0.691500000000     0.250000000000     0.155000000000     0          
O2       O      0.500000000000     0.152310000000     0.142240000000     0          
Zr2      Zr     0.500000000000     0.250000000000     0.165890000000     0          
N1       N      0.728700000000     0.750000000000     0.228040000000     0          
O3       O      0.170360000000     0.401150000000     0.408310000000     0          
C1       C      0.153500000000     0.381600000000     0.428200000000     0          
O5       O      0.089650000000     0.335820000000     0.434770000000     0          
C2       C      0.216800000000     0.416300000000     0.445080000000     0          
C3       C      0.281900000000     0.474100000000     0.438510000000     0          
C4       C      0.215400000000     0.387800000000     0.466860000000     0          
C5       C      0.345900000000     0.500900000000     0.453320000000     0          
H2       H      0.282700000000     0.495000000000     0.424100000000     0          
H3       H      0.171500000000     0.349800000000     0.471600000000     0          
C6       C      0.278800000000     0.415500000000     0.481540000000     0          
C7       C      0.345400000000     0.470100000000     0.474720000000     0          
H4       H      0.389300000000     0.539800000000     0.448800000000     0          
H5       H      0.276600000000     0.397100000000     0.496200000000     0          
C8       C      0.424200000000     0.488700000000     0.488860000000     0          
Zr1      Zr     0.115920000000     0.365920000000     0.375000000000     0          
O1       O      0.000000000000     0.384600000000     0.397290000000     0          
H1       H      0.000000000000     0.441500000000     0.405000000000     0          
O2       O      0.097690000000     0.250000000000     0.392240000000     0          
Zr2      Zr     0.000000000000     0.250000000000     0.415890000000     0          
N1       N      0.500000000000     0.478700000000     0.478040000000     0          
O3       O      0.848850000000     0.920360000000     0.658310000000     0          
C1       C      0.868400000000     0.903500000000     0.678200000000     0          
O5       O      0.914180000000     0.839650000000     0.684770000000     0          
C2       C      0.833700000000     0.966800000000     0.695080000000     0          
C3       C      0.775900000000     0.031900000000     0.688510000000     0          
C4       C      0.862200000000     0.965400000000     0.716860000000     0          
C5       C      0.749100000000     0.095900000000     0.703320000000     0          
H2       H      0.755000000000     0.032700000000     0.674100000000     0          
H3       H      0.900200000000     0.921500000000     0.721600000000     0          
C6       C      0.834500000000     0.028800000000     0.731540000000     0          
C7       C      0.779900000000     0.095400000000     0.724720000000     0          
H4       H      0.710200000000     0.139300000000     0.698800000000     0          
H5       H      0.852900000000     0.026600000000     0.746200000000     0          
C8       C      0.761300000000     0.174200000000     0.738860000000     0          
Zr1      Zr     0.884080000000     0.865920000000     0.625000000000     0          
O1       O      0.865400000000     0.750000000000     0.647290000000     0          
H1       H      0.808500000000     0.750000000000     0.655000000000     0          
O2       O      0.000000000000     0.847690000000     0.642240000000     0          
Zr2      Zr     0.000000000000     0.750000000000     0.665890000000     0          
N1       N      0.771300000000     0.250000000000     0.728040000000     0          
O3       O      0.670360000000     0.598850000000     0.908310000000     0          
C1       C      0.653500000000     0.618400000000     0.928200000000     0          
O5       O      0.589650000000     0.664180000000     0.934770000000     0          
C2       C      0.716800000000     0.583700000000     0.945080000000     0          
C3       C      0.781900000000     0.525900000000     0.938510000000     0          
C4       C      0.715400000000     0.612200000000     0.966860000000     0          
C5       C      0.845900000000     0.499100000000     0.953320000000     0          
H2       H      0.782700000000     0.505000000000     0.924100000000     0          
H3       H      0.671500000000     0.650200000000     0.971600000000     0          
C6       C      0.778800000000     0.584500000000     0.981540000000     0          
C7       C      0.845400000000     0.529900000000     0.974720000000     0          
H4       H      0.889300000000     0.460200000000     0.948800000000     0          
H5       H      0.776600000000     0.602900000000     0.996200000000     0          
C8       C      0.924200000000     0.511300000000     0.988860000000     0          
Zr1      Zr     0.615920000000     0.634080000000     0.875000000000     0          
O2       O      0.597690000000     0.750000000000     0.892240000000     0          
O3       O      0.151150000000     0.920360000000     0.658310000000     0          
C1       C      0.131600000000     0.903500000000     0.678200000000     0          
O5       O      0.085820000000     0.839650000000     0.684770000000     0          
C2       C      0.166300000000     0.966800000000     0.695080000000     0          
C3       C      0.224100000000     0.031900000000     0.688510000000     0          
C4       C      0.137800000000     0.965400000000     0.716860000000     0          
C5       C      0.250900000000     0.095900000000     0.703320000000     0          
H2       H      0.245000000000     0.032700000000     0.674100000000     0          
H3       H      0.099800000000     0.921500000000     0.721600000000     0          
C6       C      0.165500000000     0.028800000000     0.731540000000     0          
C7       C      0.220100000000     0.095400000000     0.724720000000     0          
H4       H      0.289800000000     0.139300000000     0.698800000000     0          
H5       H      0.147100000000     0.026600000000     0.746200000000     0          
C8       C      0.238700000000     0.174200000000     0.738860000000     0          
Zr1      Zr     0.115920000000     0.865920000000     0.625000000000     0          
O1       O      0.134600000000     0.750000000000     0.647290000000     0          
H1       H      0.191500000000     0.750000000000     0.655000000000     0          
N1       N      0.228700000000     0.250000000000     0.728040000000     0          
O3       O      0.829640000000     0.401150000000     0.408310000000     0          
C1       C      0.846500000000     0.381600000000     0.428200000000     0          
O5       O      0.910350000000     0.335820000000     0.434770000000     0          
C2       C      0.783200000000     0.416300000000     0.445080000000     0          
C3       C      0.718100000000     0.474100000000     0.438510000000     0          
C4       C      0.784600000000     0.387800000000     0.466860000000     0          
C5       C      0.654100000000     0.500900000000     0.453320000000     0          
H2       H      0.717300000000     0.495000000000     0.424100000000     0          
H3       H      0.828500000000     0.349800000000     0.471600000000     0          
C6       C      0.721200000000     0.415500000000     0.481540000000     0          
C7       C      0.654600000000     0.470100000000     0.474720000000     0          
H4       H      0.610700000000     0.539800000000     0.448800000000     0          
H5       H      0.723400000000     0.397100000000     0.496200000000     0          
C8       C      0.575800000000     0.488700000000     0.488860000000     0          
Zr1      Zr     0.884080000000     0.365920000000     0.375000000000     0          
O2       O      0.902310000000     0.250000000000     0.392240000000     0          
O3       O      0.348850000000     0.079640000000     0.158310000000     0          
C1       C      0.368400000000     0.096500000000     0.178200000000     0          
O5       O      0.414180000000     0.160350000000     0.184770000000     0          
C2       C      0.333700000000     0.033200000000     0.195080000000     0          
C3       C      0.275900000000     0.968100000000     0.188510000000     0          
C4       C      0.362200000000     0.034600000000     0.216860000000     0          
C5       C      0.249100000000     0.904100000000     0.203320000000     0          
H2       H      0.255000000000     0.967300000000     0.174100000000     0          
H3       H      0.400200000000     0.078500000000     0.221600000000     0          
C6       C      0.334500000000     0.971200000000     0.231540000000     0          
C7       C      0.279900000000     0.904600000000     0.224720000000     0          
H4       H      0.210200000000     0.860700000000     0.198800000000     0          
H5       H      0.352900000000     0.973400000000     0.246200000000     0          
C8       C      0.261300000000     0.825800000000     0.238860000000     0          
Zr1      Zr     0.384080000000     0.134080000000     0.125000000000     0          
O1       O      0.365400000000     0.250000000000     0.147290000000     0          
H1       H      0.308500000000     0.250000000000     0.155000000000     0          
N1       N      0.271300000000     0.750000000000     0.228040000000     0          
O3       O      0.670360000000     0.401150000000     0.091690000000     0          
C1       C      0.653500000000     0.381600000000     0.071800000000     0          
O5       O      0.589650000000     0.335820000000     0.065230000000     0          
C2       C      0.716800000000     0.416300000000     0.054920000000     0          
C3       C      0.781900000000     0.474100000000     0.061490000000     0          
C4       C      0.715400000000     0.387800000000     0.033140000000     0          
C5       C      0.845900000000     0.500900000000     0.046680000000     0          
H2       H      0.782700000000     0.495000000000     0.075900000000     0          
H3       H      0.671500000000     0.349800000000     0.028400000000     0          
C6       C      0.778800000000     0.415500000000     0.018460000000     0          
C7       C      0.845400000000     0.470100000000     0.025280000000     0          
H4       H      0.889300000000     0.539800000000     0.051200000000     0          
H5       H      0.776600000000     0.397100000000     0.003800000000     0          
C8       C      0.924200000000     0.488700000000     0.011140000000     0          
Zr1      Zr     0.615920000000     0.365920000000     0.125000000000     0          
O2       O      0.597690000000     0.250000000000     0.107760000000     0          
O3       O      0.348850000000     0.920360000000     0.841690000000     0          
C1       C      0.368400000000     0.903500000000     0.821800000000     0          
O5       O      0.414180000000     0.839650000000     0.815230000000     0          
C2       C      0.333700000000     0.966800000000     0.804920000000     0          
C3       C      0.275900000000     0.031900000000     0.811490000000     0          
C4       C      0.362200000000     0.965400000000     0.783140000000     0          
C5       C      0.249100000000     0.095900000000     0.796680000000     0          
H2       H      0.255000000000     0.032700000000     0.825900000000     0          
H3       H      0.400200000000     0.921500000000     0.778400000000     0          
C6       C      0.334500000000     0.028800000000     0.768460000000     0          
C7       C      0.279900000000     0.095400000000     0.775280000000     0          
H4       H      0.210200000000     0.139300000000     0.801200000000     0          
H5       H      0.352900000000     0.026600000000     0.753800000000     0          
C8       C      0.261300000000     0.174200000000     0.761140000000     0          
Zr1      Zr     0.384080000000     0.865920000000     0.875000000000     0          
O1       O      0.365400000000     0.750000000000     0.852710000000     0          
H1       H      0.308500000000     0.750000000000     0.845000000000     0          
N1       N      0.271300000000     0.250000000000     0.771960000000     0          
O3       O      0.829640000000     0.598850000000     0.591690000000     0          
C1       C      0.846500000000     0.618400000000     0.571800000000     0          
O5       O      0.910350000000     0.664180000000     0.565230000000     0          
C2       C      0.783200000000     0.583700000000     0.554920000000     0          
C3       C      0.718100000000     0.525900000000     0.561490000000     0          
C4       C      0.784600000000     0.612200000000     0.533140000000     0          
C5       C      0.654100000000     0.499100000000     0.546680000000     0          
H2       H      0.717300000000     0.505000000000     0.575900000000     0          
H3       H      0.828500000000     0.650200000000     0.528400000000     0          
C6       C      0.721200000000     0.584500000000     0.518460000000     0          
C7       C      0.654600000000     0.529900000000     0.525280000000     0          
H4       H      0.610700000000     0.460200000000     0.551200000000     0          
H5       H      0.723400000000     0.602900000000     0.503800000000     0          
C8       C      0.575800000000     0.511300000000     0.511140000000     0          
Zr1      Zr     0.884080000000     0.634080000000     0.625000000000     0          
O2       O      0.902310000000     0.750000000000     0.607760000000     0          
O3       O      0.151150000000     0.079640000000     0.341690000000     0          
C1       C      0.131600000000     0.096500000000     0.321800000000     0          
O5       O      0.085820000000     0.160350000000     0.315230000000     0          
C2       C      0.166300000000     0.033200000000     0.304920000000     0          
C3       C      0.224100000000     0.968100000000     0.311490000000     0          
C4       C      0.137800000000     0.034600000000     0.283140000000     0          
C5       C      0.250900000000     0.904100000000     0.296680000000     0          
H2       H      0.245000000000     0.967300000000     0.325900000000     0          
H3       H      0.099800000000     0.078500000000     0.278400000000     0          
C6       C      0.165500000000     0.971200000000     0.268460000000     0          
C7       C      0.220100000000     0.904600000000     0.275280000000     0          
H4       H      0.289800000000     0.860700000000     0.301200000000     0          
H5       H      0.147100000000     0.973400000000     0.253800000000     0          
C8       C      0.238700000000     0.825800000000     0.261140000000     0          
Zr1      Zr     0.115920000000     0.134080000000     0.375000000000     0          
O1       O      0.134600000000     0.250000000000     0.352710000000     0          
H1       H      0.191500000000     0.250000000000     0.345000000000     0          
N1       N      0.228700000000     0.750000000000     0.271960000000     0          
O3       O      0.829640000000     0.901150000000     0.591690000000     0          
C1       C      0.846500000000     0.881600000000     0.571800000000     0          
O5       O      0.910350000000     0.835820000000     0.565230000000     0          
C2       C      0.783200000000     0.916300000000     0.554920000000     0          
C3       C      0.718100000000     0.974100000000     0.561490000000     0          
C4       C      0.784600000000     0.887800000000     0.533140000000     0          
C5       C      0.654100000000     0.000900000000     0.546680000000     0          
H2       H      0.717300000000     0.995000000000     0.575900000000     0          
H3       H      0.828500000000     0.849800000000     0.528400000000     0          
C6       C      0.721200000000     0.915500000000     0.518460000000     0          
C7       C      0.654600000000     0.970100000000     0.525280000000     0          
H4       H      0.610700000000     0.039800000000     0.551200000000     0          
H5       H      0.723400000000     0.897100000000     0.503800000000     0          
C8       C      0.575800000000     0.988700000000     0.511140000000     0          
O1       O      0.000000000000     0.884600000000     0.602710000000     0          
H1       H      0.000000000000     0.941500000000     0.595000000000     0          
N1       N      0.500000000000     0.978700000000     0.521960000000     0          
O3       O      0.348850000000     0.579640000000     0.841690000000     0          
C1       C      0.368400000000     0.596500000000     0.821800000000     0          
O5       O      0.414180000000     0.660350000000     0.815230000000     0          
C2       C      0.333700000000     0.533200000000     0.804920000000     0          
C3       C      0.275900000000     0.468100000000     0.811490000000     0          
C4       C      0.362200000000     0.534600000000     0.783140000000     0          
C5       C      0.249100000000     0.404100000000     0.796680000000     0          
H2       H      0.255000000000     0.467300000000     0.825900000000     0          
H3       H      0.400200000000     0.578500000000     0.778400000000     0          
C6       C      0.334500000000     0.471200000000     0.768460000000     0          
C7       C      0.279900000000     0.404600000000     0.775280000000     0          
H4       H      0.210200000000     0.360700000000     0.801200000000     0          
H5       H      0.352900000000     0.473400000000     0.753800000000     0          
C8       C      0.261300000000     0.325800000000     0.761140000000     0          
O2       O      0.500000000000     0.652310000000     0.857760000000     0          
O3       O      0.670360000000     0.098850000000     0.091690000000     0          
C1       C      0.653500000000     0.118400000000     0.071800000000     0          
O5       O      0.589650000000     0.164180000000     0.065230000000     0          
C2       C      0.716800000000     0.083700000000     0.054920000000     0          
C3       C      0.781900000000     0.025900000000     0.061490000000     0          
C4       C      0.715400000000     0.112200000000     0.033140000000     0          
C5       C      0.845900000000     0.999100000000     0.046680000000     0          
H2       H      0.782700000000     0.005000000000     0.075900000000     0          
H3       H      0.671500000000     0.150200000000     0.028400000000     0          
C6       C      0.778800000000     0.084500000000     0.018460000000     0          
C7       C      0.845400000000     0.029900000000     0.025280000000     0          
H4       H      0.889300000000     0.960200000000     0.051200000000     0          
H5       H      0.776600000000     0.102900000000     0.003800000000     0          
C8       C      0.924200000000     0.011300000000     0.011140000000     0          
O1       O      0.500000000000     0.115400000000     0.102710000000     0          
H1       H      0.500000000000     0.058500000000     0.095000000000     0          
N1       N      0.000000000000     0.021300000000     0.021960000000     0          
O3       O      0.151150000000     0.420360000000     0.341690000000     0          
C1       C      0.131600000000     0.403500000000     0.321800000000     0          
O5       O      0.085820000000     0.339650000000     0.315230000000     0          
C2       C      0.166300000000     0.466800000000     0.304920000000     0          
C3       C      0.224100000000     0.531900000000     0.311490000000     0          
C4       C      0.137800000000     0.465400000000     0.283140000000     0          
C5       C      0.250900000000     0.595900000000     0.296680000000     0          
H2       H      0.245000000000     0.532700000000     0.325900000000     0          
H3       H      0.099800000000     0.421500000000     0.278400000000     0          
C6       C      0.165500000000     0.528800000000     0.268460000000     0          
C7       C      0.220100000000     0.595400000000     0.275280000000     0          
H4       H      0.289800000000     0.639300000000     0.301200000000     0          
H5       H      0.147100000000     0.526600000000     0.253800000000     0          
C8       C      0.238700000000     0.674200000000     0.261140000000     0          
O2       O      0.000000000000     0.347690000000     0.357760000000     0          
O3       O      0.829640000000     0.098850000000     0.408310000000     0          
C1       C      0.846500000000     0.118400000000     0.428200000000     0          
O5       O      0.910350000000     0.164180000000     0.434770000000     0          
C2       C      0.783200000000     0.083700000000     0.445080000000     0          
C3       C      0.718100000000     0.025900000000     0.438510000000     0          
C4       C      0.784600000000     0.112200000000     0.466860000000     0          
C5       C      0.654100000000     0.999100000000     0.453320000000     0          
H2       H      0.717300000000     0.005000000000     0.424100000000     0          
H3       H      0.828500000000     0.150200000000     0.471600000000     0          
C6       C      0.721200000000     0.084500000000     0.481540000000     0          
C7       C      0.654600000000     0.029900000000     0.474720000000     0          
H4       H      0.610700000000     0.960200000000     0.448800000000     0          
H5       H      0.723400000000     0.102900000000     0.496200000000     0          
C8       C      0.575800000000     0.011300000000     0.488860000000     0          
O1       O      0.000000000000     0.115400000000     0.397290000000     0          
H1       H      0.000000000000     0.058500000000     0.405000000000     0          
N1       N      0.500000000000     0.021300000000     0.478040000000     0          
O3       O      0.151150000000     0.579640000000     0.658310000000     0          
C1       C      0.131600000000     0.596500000000     0.678200000000     0          
O5       O      0.085820000000     0.660350000000     0.684770000000     0          
C2       C      0.166300000000     0.533200000000     0.695080000000     0          
C3       C      0.224100000000     0.468100000000     0.688510000000     0          
C4       C      0.137800000000     0.534600000000     0.716860000000     0          
C5       C      0.250900000000     0.404100000000     0.703320000000     0          
H2       H      0.245000000000     0.467300000000     0.674100000000     0          
H3       H      0.099800000000     0.578500000000     0.721600000000     0          
C6       C      0.165500000000     0.471200000000     0.731540000000     0          
C7       C      0.220100000000     0.404600000000     0.724720000000     0          
H4       H      0.289800000000     0.360700000000     0.698800000000     0          
H5       H      0.147100000000     0.473400000000     0.746200000000     0          
C8       C      0.238700000000     0.325800000000     0.738860000000     0          
O2       O      0.000000000000     0.652310000000     0.642240000000     0          
O3       O      0.670360000000     0.901150000000     0.908310000000     0          
C1       C      0.653500000000     0.881600000000     0.928200000000     0          
O5       O      0.589650000000     0.835820000000     0.934770000000     0          
C2       C      0.716800000000     0.916300000000     0.945080000000     0          
C3       C      0.781900000000     0.974100000000     0.938510000000     0          
C4       C      0.715400000000     0.887800000000     0.966860000000     0          
C5       C      0.845900000000     0.000900000000     0.953320000000     0          
H2       H      0.782700000000     0.995000000000     0.924100000000     0          
H3       H      0.671500000000     0.849800000000     0.971600000000     0          
C6       C      0.778800000000     0.915500000000     0.981540000000     0          
C7       C      0.845400000000     0.970100000000     0.974720000000     0          
H4       H      0.889300000000     0.039800000000     0.948800000000     0          
H5       H      0.776600000000     0.897100000000     0.996200000000     0          
C8       C      0.924200000000     0.988700000000     0.988860000000     0          
O1       O      0.500000000000     0.884600000000     0.897290000000     0          
H1       H      0.500000000000     0.941500000000     0.905000000000     0          
N1       N      0.000000000000     0.978700000000     0.978040000000     0          
O3       O      0.348850000000     0.420360000000     0.158310000000     0          
C1       C      0.368400000000     0.403500000000     0.178200000000     0          
O5       O      0.414180000000     0.339650000000     0.184770000000     0          
C2       C      0.333700000000     0.466800000000     0.195080000000     0          
C3       C      0.275900000000     0.531900000000     0.188510000000     0          
C4       C      0.362200000000     0.465400000000     0.216860000000     0          
C5       C      0.249100000000     0.595900000000     0.203320000000     0          
H2       H      0.255000000000     0.532700000000     0.174100000000     0          
H3       H      0.400200000000     0.421500000000     0.221600000000     0          
C6       C      0.334500000000     0.528800000000     0.231540000000     0          
C7       C      0.279900000000     0.595400000000     0.224720000000     0          
H4       H      0.210200000000     0.639300000000     0.198800000000     0          
H5       H      0.352900000000     0.526600000000     0.246200000000     0          
C8       C      0.261300000000     0.674200000000     0.238860000000     0          
O2       O      0.500000000000     0.347690000000     0.142240000000     0          
O3       O      0.170360000000     0.098850000000     0.408310000000     0          
C1       C      0.153500000000     0.118400000000     0.428200000000     0          
O5       O      0.089650000000     0.164180000000     0.434770000000     0          
C2       C      0.216800000000     0.083700000000     0.445080000000     0          
C3       C      0.281900000000     0.025900000000     0.438510000000     0          
C4       C      0.215400000000     0.112200000000     0.466860000000     0          
C5       C      0.345900000000     0.999100000000     0.453320000000     0          
H2       H      0.282700000000     0.005000000000     0.424100000000     0          
H3       H      0.171500000000     0.150200000000     0.471600000000     0          
C6       C      0.278800000000     0.084500000000     0.481540000000     0          
C7       C      0.345400000000     0.029900000000     0.474720000000     0          
H4       H      0.389300000000     0.960200000000     0.448800000000     0          
H5       H      0.276600000000     0.102900000000     0.496200000000     0          
C8       C      0.424200000000     0.011300000000     0.488860000000     0          
O3       O      0.651150000000     0.420360000000     0.158310000000     0          
C1       C      0.631600000000     0.403500000000     0.178200000000     0          
O5       O      0.585820000000     0.339650000000     0.184770000000     0          
C2       C      0.666300000000     0.466800000000     0.195080000000     0          
C3       C      0.724100000000     0.531900000000     0.188510000000     0          
C4       C      0.637800000000     0.465400000000     0.216860000000     0          
C5       C      0.750900000000     0.595900000000     0.203320000000     0          
H2       H      0.745000000000     0.532700000000     0.174100000000     0          
H3       H      0.599800000000     0.421500000000     0.221600000000     0          
C6       C      0.665500000000     0.528800000000     0.231540000000     0          
C7       C      0.720100000000     0.595400000000     0.224720000000     0          
H4       H      0.789800000000     0.639300000000     0.198800000000     0          
H5       H      0.647100000000     0.526600000000     0.246200000000     0          
C8       C      0.738700000000     0.674200000000     0.238860000000     0          
O3       O      0.329640000000     0.901150000000     0.908310000000     0          
C1       C      0.346500000000     0.881600000000     0.928200000000     0          
O5       O      0.410350000000     0.835820000000     0.934770000000     0          
C2       C      0.283200000000     0.916300000000     0.945080000000     0          
C3       C      0.218100000000     0.974100000000     0.938510000000     0          
C4       C      0.284600000000     0.887800000000     0.966860000000     0          
C5       C      0.154100000000     0.000900000000     0.953320000000     0          
H2       H      0.217300000000     0.995000000000     0.924100000000     0          
H3       H      0.328500000000     0.849800000000     0.971600000000     0          
C6       C      0.221200000000     0.915500000000     0.981540000000     0          
C7       C      0.154600000000     0.970100000000     0.974720000000     0          
H4       H      0.110700000000     0.039800000000     0.948800000000     0          
H5       H      0.223400000000     0.897100000000     0.996200000000     0          
C8       C      0.075800000000     0.988700000000     0.988860000000     0          
O3       O      0.848850000000     0.579640000000     0.658310000000     0          
C1       C      0.868400000000     0.596500000000     0.678200000000     0          
O5       O      0.914180000000     0.660350000000     0.684770000000     0          
C2       C      0.833700000000     0.533200000000     0.695080000000     0          
C3       C      0.775900000000     0.468100000000     0.688510000000     0          
C4       C      0.862200000000     0.534600000000     0.716860000000     0          
C5       C      0.749100000000     0.404100000000     0.703320000000     0          
H2       H      0.755000000000     0.467300000000     0.674100000000     0          
H3       H      0.900200000000     0.578500000000     0.721600000000     0          
C6       C      0.834500000000     0.471200000000     0.731540000000     0          
C7       C      0.779900000000     0.404600000000     0.724720000000     0          
H4       H      0.710200000000     0.360700000000     0.698800000000     0          
H5       H      0.852900000000     0.473400000000     0.746200000000     0          
C8       C      0.761300000000     0.325800000000     0.738860000000     0          
O3       O      0.170360000000     0.901150000000     0.591690000000     0          
C1       C      0.153500000000     0.881600000000     0.571800000000     0          
O5       O      0.089650000000     0.835820000000     0.565230000000     0          
C2       C      0.216800000000     0.916300000000     0.554920000000     0          
C3       C      0.281900000000     0.974100000000     0.561490000000     0          
C4       C      0.215400000000     0.887800000000     0.533140000000     0          
C5       C      0.345900000000     0.000900000000     0.546680000000     0          
H2       H      0.282700000000     0.995000000000     0.575900000000     0          
H3       H      0.171500000000     0.849800000000     0.528400000000     0          
C6       C      0.278800000000     0.915500000000     0.518460000000     0          
C7       C      0.345400000000     0.970100000000     0.525280000000     0          
H4       H      0.389300000000     0.039800000000     0.551200000000     0          
H5       H      0.276600000000     0.897100000000     0.503800000000     0          
C8       C      0.424200000000     0.988700000000     0.511140000000     0          
O3       O      0.848850000000     0.420360000000     0.341690000000     0          
C1       C      0.868400000000     0.403500000000     0.321800000000     0          
O5       O      0.914180000000     0.339650000000     0.315230000000     0          
C2       C      0.833700000000     0.466800000000     0.304920000000     0          
C3       C      0.775900000000     0.531900000000     0.311490000000     0          
C4       C      0.862200000000     0.465400000000     0.283140000000     0          
C5       C      0.749100000000     0.595900000000     0.296680000000     0          
H2       H      0.755000000000     0.532700000000     0.325900000000     0          
H3       H      0.900200000000     0.421500000000     0.278400000000     0          
C6       C      0.834500000000     0.528800000000     0.268460000000     0          
C7       C      0.779900000000     0.595400000000     0.275280000000     0          
H4       H      0.710200000000     0.639300000000     0.301200000000     0          
H5       H      0.852900000000     0.526600000000     0.253800000000     0          
C8       C      0.761300000000     0.674200000000     0.261140000000     0          
O3       O      0.329640000000     0.098850000000     0.091690000000     0          
C1       C      0.346500000000     0.118400000000     0.071800000000     0          
O5       O      0.410350000000     0.164180000000     0.065230000000     0          
C2       C      0.283200000000     0.083700000000     0.054920000000     0          
C3       C      0.218100000000     0.025900000000     0.061490000000     0          
C4       C      0.284600000000     0.112200000000     0.033140000000     0          
C5       C      0.154100000000     0.999100000000     0.046680000000     0          
H2       H      0.217300000000     0.005000000000     0.075900000000     0          
H3       H      0.328500000000     0.150200000000     0.028400000000     0          
C6       C      0.221200000000     0.084500000000     0.018460000000     0          
C7       C      0.154600000000     0.029900000000     0.025280000000     0          
H4       H      0.110700000000     0.960200000000     0.051200000000     0          
H5       H      0.223400000000     0.102900000000     0.003800000000     0          
C8       C      0.075800000000     0.011300000000     0.011140000000     0          
O3       O      0.651150000000     0.579640000000     0.841690000000     0          
C1       C      0.631600000000     0.596500000000     0.821800000000     0          
O5       O      0.585820000000     0.660350000000     0.815230000000     0          
C2       C      0.666300000000     0.533200000000     0.804920000000     0          
C3       C      0.724100000000     0.468100000000     0.811490000000     0          
C4       C      0.637800000000     0.534600000000     0.783140000000     0          
C5       C      0.750900000000     0.404100000000     0.796680000000     0          
H2       H      0.745000000000     0.467300000000     0.825900000000     0          
H3       H      0.599800000000     0.578500000000     0.778400000000     0          
C6       C      0.665500000000     0.471200000000     0.768460000000     0          
C7       C      0.720100000000     0.404600000000     0.775280000000     0          
H4       H      0.789800000000     0.360700000000     0.801200000000     0          
H5       H      0.647100000000     0.473400000000     0.753800000000     0          
C8       C      0.738700000000     0.325800000000     0.761140000000     0          


