data_RUBLUX

_audit_creation_method RASPA-1.0
_audit_creation_date 2020-12-11
_audit_author_name 'Rocio Bueno-Perez'

_cell_length_a    34.351
_cell_length_b    34.351
_cell_length_c    14.71
_cell_angle_alpha 90
_cell_angle_beta  90
_cell_angle_gamma 90
_cell_volume      17357.7

_symmetry_cell_setting          triclinic
_symmetry_space_group_name_Hall 'P 1'
_symmetry_space_group_name_H-M  'P 1'
_symmetry_Int_Tables_number     1

_symmetry_equiv_pos_as_xyz 'x,y,z'

loop_
_atom_site_label
_atom_site_type_symbol
_atom_site_fract_x
_atom_site_fract_y
_atom_site_fract_z
_atom_site_charge
O1       O      0.249600000000     0.670000000000     0.173000000000     0          
O2       O      0.194500000000     0.659400000000     0.090300000000     0          
O3       O      0.212800000000     0.362500000000     0.410800000000     0          
O4       O      0.213600000000     0.736400000000     0.115700000000     0          
H5       H      0.205600000000     0.728600000000     0.176700000000     0          
O6       O      0.274300000000     0.353100000000     0.328100000000     0          
C7       C      0.222900000000     0.649000000000     0.146000000000     0          
C8       C      0.222300000000     0.608400000000     0.179000000000     0          
C9       C      0.249800000000     0.595500000000     0.241600000000     0          
H10      H      0.267100000000     0.613800000000     0.269900000000     0          
C11      C      0.252200000000     0.556200000000     0.263100000000     0          
H12      H      0.271100000000     0.547300000000     0.306300000000     0          
C13      C      0.227100000000     0.529700000000     0.222200000000     0          
C14      C      0.199600000000     0.542600000000     0.159600000000     0          
C15      C      0.197200000000     0.581900000000     0.138100000000     0          
H16      H      0.178300000000     0.590800000000     0.094900000000     0          
C17      C      0.169300000000     0.511100000000     0.106600000000     0          
H18      H      0.152500000000     0.525200000000     0.066200000000     0          
H19      H      0.184300000000     0.492600000000     0.072500000000     0          
H20      H      0.153900000000     0.497600000000     0.151100000000     0          
C21      C      0.229800000000     0.488900000000     0.250700000000     0          
C22      C      0.258300000000     0.464400000000     0.215300000000     0          
H23      H      0.275200000000     0.473500000000     0.168100000000     0          
C24      C      0.262100000000     0.426700000000     0.248300000000     0          
H25      H      0.281800000000     0.409800000000     0.223800000000     0          
C26      C      0.237500000000     0.413400000000     0.316700000000     0          
C27      C      0.209100000000     0.437900000000     0.352100000000     0          
H28      H      0.192100000000     0.428700000000     0.399300000000     0          
C29      C      0.205200000000     0.475600000000     0.319100000000     0          
C30      C      0.179900000000     0.503300000000     0.390800000000     0          
H31      H      0.165200000000     0.487000000000     0.431300000000     0          
H32      H      0.197400000000     0.519200000000     0.425400000000     0          
H33      H      0.162400000000     0.519600000000     0.357100000000     0          
C34      C      0.240900000000     0.373300000000     0.354100000000     0          
O35      O      0.750400000000     0.330000000000     0.173000000000     0          
O36      O      0.805500000000     0.340600000000     0.090300000000     0          
O37      O      0.787200000000     0.637500000000     0.410800000000     0          
O38      O      0.786400000000     0.263600000000     0.115700000000     0          
H39      H      0.794400000000     0.271400000000     0.176700000000     0          
O40      O      0.725700000000     0.646900000000     0.328100000000     0          
C41      C      0.777100000000     0.351000000000     0.146000000000     0          
C42      C      0.777700000000     0.391600000000     0.179000000000     0          
C43      C      0.750200000000     0.404500000000     0.241600000000     0          
H44      H      0.732900000000     0.386200000000     0.269900000000     0          
C45      C      0.747800000000     0.443800000000     0.263100000000     0          
H46      H      0.728900000000     0.452700000000     0.306300000000     0          
C47      C      0.772900000000     0.470300000000     0.222200000000     0          
C48      C      0.800400000000     0.457400000000     0.159600000000     0          
C49      C      0.802800000000     0.418100000000     0.138100000000     0          
H50      H      0.821700000000     0.409200000000     0.094900000000     0          
C51      C      0.830700000000     0.488900000000     0.106600000000     0          
H52      H      0.847500000000     0.474800000000     0.066200000000     0          
H53      H      0.815700000000     0.507400000000     0.072500000000     0          
H54      H      0.846100000000     0.502400000000     0.151100000000     0          
C55      C      0.770200000000     0.511100000000     0.250700000000     0          
C56      C      0.741700000000     0.535600000000     0.215300000000     0          
H57      H      0.724800000000     0.526500000000     0.168100000000     0          
C58      C      0.737900000000     0.573300000000     0.248300000000     0          
H59      H      0.718200000000     0.590200000000     0.223800000000     0          
C60      C      0.762500000000     0.586600000000     0.316700000000     0          
C61      C      0.790900000000     0.562100000000     0.352100000000     0          
H62      H      0.807900000000     0.571300000000     0.399300000000     0          
C63      C      0.794800000000     0.524400000000     0.319100000000     0          
C64      C      0.820100000000     0.496700000000     0.390800000000     0          
H65      H      0.834800000000     0.513000000000     0.431300000000     0          
H66      H      0.802600000000     0.480800000000     0.425400000000     0          
H67      H      0.837600000000     0.480400000000     0.357100000000     0          
C68      C      0.759100000000     0.626700000000     0.354100000000     0          
O69      O      0.830000000000     0.749600000000     0.673000000000     0          
O70      O      0.840600000000     0.694500000000     0.590300000000     0          
O71      O      0.137500000000     0.712800000000     0.910800000000     0          
O72      O      0.763600000000     0.713600000000     0.615700000000     0          
H73      H      0.771400000000     0.705600000000     0.676700000000     0          
O74      O      0.146900000000     0.774300000000     0.828100000000     0          
C75      C      0.851000000000     0.722900000000     0.646000000000     0          
C76      C      0.891600000000     0.722300000000     0.679000000000     0          
C77      C      0.904500000000     0.749800000000     0.741600000000     0          
H78      H      0.886200000000     0.767100000000     0.769900000000     0          
C79      C      0.943800000000     0.752200000000     0.763100000000     0          
H80      H      0.952700000000     0.771100000000     0.806300000000     0          
C81      C      0.970300000000     0.727100000000     0.722200000000     0          
C82      C      0.957400000000     0.699600000000     0.659600000000     0          
C83      C      0.918100000000     0.697200000000     0.638100000000     0          
H84      H      0.909200000000     0.678300000000     0.594900000000     0          
C85      C      0.988900000000     0.669300000000     0.606600000000     0          
H86      H      0.974800000000     0.652500000000     0.566200000000     0          
H87      H      0.007400000000     0.684300000000     0.572500000000     0          
H88      H      0.002400000000     0.653900000000     0.651100000000     0          
C89      C      0.011100000000     0.729800000000     0.750700000000     0          
C90      C      0.035600000000     0.758300000000     0.715300000000     0          
H91      H      0.026500000000     0.775200000000     0.668100000000     0          
C92      C      0.073300000000     0.762100000000     0.748300000000     0          
H93      H      0.090200000000     0.781800000000     0.723800000000     0          
C94      C      0.086600000000     0.737500000000     0.816700000000     0          
C95      C      0.062100000000     0.709100000000     0.852100000000     0          
H96      H      0.071300000000     0.692100000000     0.899300000000     0          
C97      C      0.024400000000     0.705200000000     0.819100000000     0          
C98      C      0.996700000000     0.679900000000     0.890800000000     0          
H99      H      0.013000000000     0.665200000000     0.931300000000     0          
H100     H      0.980800000000     0.697400000000     0.925400000000     0          
H101     H      0.980400000000     0.662400000000     0.857100000000     0          
C102     C      0.126700000000     0.740900000000     0.854100000000     0          
O103     O      0.170000000000     0.250400000000     0.673000000000     0          
O104     O      0.159400000000     0.305500000000     0.590300000000     0          
O105     O      0.862500000000     0.287200000000     0.910800000000     0          
O106     O      0.236400000000     0.286400000000     0.615700000000     0          
H107     H      0.228600000000     0.294400000000     0.676700000000     0          
O108     O      0.853100000000     0.225700000000     0.828100000000     0          
C109     C      0.149000000000     0.277100000000     0.646000000000     0          
C110     C      0.108400000000     0.277700000000     0.679000000000     0          
C111     C      0.095500000000     0.250200000000     0.741600000000     0          
H112     H      0.113800000000     0.232900000000     0.769900000000     0          
C113     C      0.056200000000     0.247800000000     0.763100000000     0          
H114     H      0.047300000000     0.228900000000     0.806300000000     0          
C115     C      0.029700000000     0.272900000000     0.722200000000     0          
C116     C      0.042600000000     0.300400000000     0.659600000000     0          
C117     C      0.081900000000     0.302800000000     0.638100000000     0          
H118     H      0.090800000000     0.321700000000     0.594900000000     0          
C119     C      0.011100000000     0.330700000000     0.606600000000     0          
H120     H      0.025200000000     0.347500000000     0.566200000000     0          
H121     H      0.992600000000     0.315700000000     0.572500000000     0          
H122     H      0.997600000000     0.346100000000     0.651100000000     0          
C123     C      0.988900000000     0.270200000000     0.750700000000     0          
C124     C      0.964400000000     0.241700000000     0.715300000000     0          
H125     H      0.973500000000     0.224800000000     0.668100000000     0          
C126     C      0.926700000000     0.237900000000     0.748300000000     0          
H127     H      0.909800000000     0.218200000000     0.723800000000     0          
C128     C      0.913400000000     0.262500000000     0.816700000000     0          
C129     C      0.937900000000     0.290900000000     0.852100000000     0          
H130     H      0.928700000000     0.307900000000     0.899300000000     0          
C131     C      0.975600000000     0.294800000000     0.819100000000     0          
C132     C      0.003300000000     0.320100000000     0.890800000000     0          
H133     H      0.987000000000     0.334800000000     0.931300000000     0          
H134     H      0.019200000000     0.302600000000     0.925400000000     0          
H135     H      0.019600000000     0.337600000000     0.857100000000     0          
C136     C      0.873300000000     0.259100000000     0.854100000000     0          
O137     O      0.250400000000     0.170000000000     0.327000000000     0          
O138     O      0.305500000000     0.159400000000     0.409700000000     0          
O139     O      0.287200000000     0.862500000000     0.089200000000     0          
O140     O      0.286400000000     0.236400000000     0.384300000000     0          
H141     H      0.294400000000     0.228600000000     0.323300000000     0          
O142     O      0.225700000000     0.853100000000     0.171900000000     0          
C143     C      0.277100000000     0.149000000000     0.354000000000     0          
C144     C      0.277700000000     0.108400000000     0.321000000000     0          
C145     C      0.250200000000     0.095500000000     0.258400000000     0          
H146     H      0.232900000000     0.113800000000     0.230100000000     0          
C147     C      0.247800000000     0.056200000000     0.236900000000     0          
H148     H      0.228900000000     0.047300000000     0.193700000000     0          
C149     C      0.272900000000     0.029700000000     0.277800000000     0          
C150     C      0.300400000000     0.042600000000     0.340400000000     0          
C151     C      0.302800000000     0.081900000000     0.361900000000     0          
H152     H      0.321700000000     0.090800000000     0.405100000000     0          
C153     C      0.330700000000     0.011100000000     0.393400000000     0          
H154     H      0.347500000000     0.025200000000     0.433800000000     0          
H155     H      0.315700000000     0.992600000000     0.427500000000     0          
H156     H      0.346100000000     0.997600000000     0.348900000000     0          
C157     C      0.270200000000     0.988900000000     0.249300000000     0          
C158     C      0.241700000000     0.964400000000     0.284700000000     0          
H159     H      0.224800000000     0.973500000000     0.331900000000     0          
C160     C      0.237900000000     0.926700000000     0.251700000000     0          
H161     H      0.218200000000     0.909800000000     0.276200000000     0          
C162     C      0.262500000000     0.913400000000     0.183300000000     0          
C163     C      0.290900000000     0.937900000000     0.147900000000     0          
H164     H      0.307900000000     0.928700000000     0.100700000000     0          
C165     C      0.294800000000     0.975600000000     0.180900000000     0          
C166     C      0.320100000000     0.003300000000     0.109200000000     0          
H167     H      0.334800000000     0.987000000000     0.068700000000     0          
H168     H      0.302600000000     0.019200000000     0.074600000000     0          
H169     H      0.337600000000     0.019600000000     0.142900000000     0          
C170     C      0.259100000000     0.873300000000     0.145900000000     0          
O171     O      0.749600000000     0.830000000000     0.327000000000     0          
O172     O      0.694500000000     0.840600000000     0.409700000000     0          
O173     O      0.712800000000     0.137500000000     0.089200000000     0          
O174     O      0.713600000000     0.763600000000     0.384300000000     0          
H175     H      0.705600000000     0.771400000000     0.323300000000     0          
O176     O      0.774300000000     0.146900000000     0.171900000000     0          
C177     C      0.722900000000     0.851000000000     0.354000000000     0          
C178     C      0.722300000000     0.891600000000     0.321000000000     0          
C179     C      0.749800000000     0.904500000000     0.258400000000     0          
H180     H      0.767100000000     0.886200000000     0.230100000000     0          
C181     C      0.752200000000     0.943800000000     0.236900000000     0          
H182     H      0.771100000000     0.952700000000     0.193700000000     0          
C183     C      0.727100000000     0.970300000000     0.277800000000     0          
C184     C      0.699600000000     0.957400000000     0.340400000000     0          
C185     C      0.697200000000     0.918100000000     0.361900000000     0          
H186     H      0.678300000000     0.909200000000     0.405100000000     0          
C187     C      0.669300000000     0.988900000000     0.393400000000     0          
H188     H      0.652500000000     0.974800000000     0.433800000000     0          
H189     H      0.684300000000     0.007400000000     0.427500000000     0          
H190     H      0.653900000000     0.002400000000     0.348900000000     0          
C191     C      0.729800000000     0.011100000000     0.249300000000     0          
C192     C      0.758300000000     0.035600000000     0.284700000000     0          
H193     H      0.775200000000     0.026500000000     0.331900000000     0          
C194     C      0.762100000000     0.073300000000     0.251700000000     0          
H195     H      0.781800000000     0.090200000000     0.276200000000     0          
C196     C      0.737500000000     0.086600000000     0.183300000000     0          
C197     C      0.709100000000     0.062100000000     0.147900000000     0          
H198     H      0.692100000000     0.071300000000     0.100700000000     0          
C199     C      0.705200000000     0.024400000000     0.180900000000     0          
C200     C      0.679900000000     0.996700000000     0.109200000000     0          
H201     H      0.665200000000     0.013000000000     0.068700000000     0          
H202     H      0.697400000000     0.980800000000     0.074600000000     0          
H203     H      0.662400000000     0.980400000000     0.142900000000     0          
C204     C      0.740900000000     0.126700000000     0.145900000000     0          
O205     O      0.670000000000     0.249600000000     0.827000000000     0          
O206     O      0.659400000000     0.194500000000     0.909700000000     0          
O207     O      0.362500000000     0.212800000000     0.589200000000     0          
O208     O      0.736400000000     0.213600000000     0.884300000000     0          
H209     H      0.728600000000     0.205600000000     0.823300000000     0          
O210     O      0.353100000000     0.274300000000     0.671900000000     0          
C211     C      0.649000000000     0.222900000000     0.854000000000     0          
C212     C      0.608400000000     0.222300000000     0.821000000000     0          
C213     C      0.595500000000     0.249800000000     0.758400000000     0          
H214     H      0.613800000000     0.267100000000     0.730100000000     0          
C215     C      0.556200000000     0.252200000000     0.736900000000     0          
H216     H      0.547300000000     0.271100000000     0.693700000000     0          
C217     C      0.529700000000     0.227100000000     0.777800000000     0          
C218     C      0.542600000000     0.199600000000     0.840400000000     0          
C219     C      0.581900000000     0.197200000000     0.861900000000     0          
H220     H      0.590800000000     0.178300000000     0.905100000000     0          
C221     C      0.511100000000     0.169300000000     0.893400000000     0          
H222     H      0.525200000000     0.152500000000     0.933800000000     0          
H223     H      0.492600000000     0.184300000000     0.927500000000     0          
H224     H      0.497600000000     0.153900000000     0.848900000000     0          
C225     C      0.488900000000     0.229800000000     0.749300000000     0          
C226     C      0.464400000000     0.258300000000     0.784700000000     0          
H227     H      0.473500000000     0.275200000000     0.831900000000     0          
C228     C      0.426700000000     0.262100000000     0.751700000000     0          
H229     H      0.409800000000     0.281800000000     0.776200000000     0          
C230     C      0.413400000000     0.237500000000     0.683300000000     0          
C231     C      0.437900000000     0.209100000000     0.647900000000     0          
H232     H      0.428700000000     0.192100000000     0.600700000000     0          
C233     C      0.475600000000     0.205200000000     0.680900000000     0          
C234     C      0.503300000000     0.179900000000     0.609200000000     0          
H235     H      0.487000000000     0.165200000000     0.568700000000     0          
H236     H      0.519200000000     0.197400000000     0.574600000000     0          
H237     H      0.519600000000     0.162400000000     0.642900000000     0          
C238     C      0.373300000000     0.240900000000     0.645900000000     0          
O239     O      0.330000000000     0.750400000000     0.827000000000     0          
O240     O      0.340600000000     0.805500000000     0.909700000000     0          
O241     O      0.637500000000     0.787200000000     0.589200000000     0          
O242     O      0.263600000000     0.786400000000     0.884300000000     0          
H243     H      0.271400000000     0.794400000000     0.823300000000     0          
O244     O      0.646900000000     0.725700000000     0.671900000000     0          
C245     C      0.351000000000     0.777100000000     0.854000000000     0          
C246     C      0.391600000000     0.777700000000     0.821000000000     0          
C247     C      0.404500000000     0.750200000000     0.758400000000     0          
H248     H      0.386200000000     0.732900000000     0.730100000000     0          
C249     C      0.443800000000     0.747800000000     0.736900000000     0          
H250     H      0.452700000000     0.728900000000     0.693700000000     0          
C251     C      0.470300000000     0.772900000000     0.777800000000     0          
C252     C      0.457400000000     0.800400000000     0.840400000000     0          
C253     C      0.418100000000     0.802800000000     0.861900000000     0          
H254     H      0.409200000000     0.821700000000     0.905100000000     0          
C255     C      0.488900000000     0.830700000000     0.893400000000     0          
H256     H      0.474800000000     0.847500000000     0.933800000000     0          
H257     H      0.507400000000     0.815700000000     0.927500000000     0          
H258     H      0.502400000000     0.846100000000     0.848900000000     0          
C259     C      0.511100000000     0.770200000000     0.749300000000     0          
C260     C      0.535600000000     0.741700000000     0.784700000000     0          
H261     H      0.526500000000     0.724800000000     0.831900000000     0          
C262     C      0.573300000000     0.737900000000     0.751700000000     0          
H263     H      0.590200000000     0.718200000000     0.776200000000     0          
C264     C      0.586600000000     0.762500000000     0.683300000000     0          
C265     C      0.562100000000     0.790900000000     0.647900000000     0          
H266     H      0.571300000000     0.807900000000     0.600700000000     0          
C267     C      0.524400000000     0.794800000000     0.680900000000     0          
C268     C      0.496700000000     0.820100000000     0.609200000000     0          
H269     H      0.513000000000     0.834800000000     0.568700000000     0          
H270     H      0.480800000000     0.802600000000     0.574600000000     0          
H271     H      0.480400000000     0.837600000000     0.642900000000     0          
C272     C      0.626700000000     0.759100000000     0.645900000000     0          
O273     O      0.750400000000     0.330000000000     0.827000000000     0          
O274     O      0.805500000000     0.340600000000     0.909700000000     0          
O275     O      0.787200000000     0.637500000000     0.589200000000     0          
O276     O      0.786400000000     0.263600000000     0.884300000000     0          
H277     H      0.794400000000     0.271400000000     0.823300000000     0          
O278     O      0.725700000000     0.646900000000     0.671900000000     0          
C279     C      0.777100000000     0.351000000000     0.854000000000     0          
C280     C      0.777700000000     0.391600000000     0.821000000000     0          
C281     C      0.750200000000     0.404500000000     0.758400000000     0          
H282     H      0.732900000000     0.386200000000     0.730100000000     0          
C283     C      0.747800000000     0.443800000000     0.736900000000     0          
H284     H      0.728900000000     0.452700000000     0.693700000000     0          
C285     C      0.772900000000     0.470300000000     0.777800000000     0          
C286     C      0.800400000000     0.457400000000     0.840400000000     0          
C287     C      0.802800000000     0.418100000000     0.861900000000     0          
H288     H      0.821700000000     0.409200000000     0.905100000000     0          
C289     C      0.830700000000     0.488900000000     0.893400000000     0          
H290     H      0.847500000000     0.474800000000     0.933800000000     0          
H291     H      0.815700000000     0.507400000000     0.927500000000     0          
H292     H      0.846100000000     0.502400000000     0.848900000000     0          
C293     C      0.770200000000     0.511100000000     0.749300000000     0          
C294     C      0.741700000000     0.535600000000     0.784700000000     0          
H295     H      0.724800000000     0.526500000000     0.831900000000     0          
C296     C      0.737900000000     0.573300000000     0.751700000000     0          
H297     H      0.718200000000     0.590200000000     0.776200000000     0          
C298     C      0.762500000000     0.586600000000     0.683300000000     0          
C299     C      0.790900000000     0.562100000000     0.647900000000     0          
H300     H      0.807900000000     0.571300000000     0.600700000000     0          
C301     C      0.794800000000     0.524400000000     0.680900000000     0          
C302     C      0.820100000000     0.496700000000     0.609200000000     0          
H303     H      0.834800000000     0.513000000000     0.568700000000     0          
H304     H      0.802600000000     0.480800000000     0.574600000000     0          
H305     H      0.837600000000     0.480400000000     0.642900000000     0          
C306     C      0.759100000000     0.626700000000     0.645900000000     0          
O307     O      0.249600000000     0.670000000000     0.827000000000     0          
O308     O      0.194500000000     0.659400000000     0.909700000000     0          
O309     O      0.212800000000     0.362500000000     0.589200000000     0          
O310     O      0.213600000000     0.736400000000     0.884300000000     0          
H311     H      0.205600000000     0.728600000000     0.823300000000     0          
O312     O      0.274300000000     0.353100000000     0.671900000000     0          
C313     C      0.222900000000     0.649000000000     0.854000000000     0          
C314     C      0.222300000000     0.608400000000     0.821000000000     0          
C315     C      0.249800000000     0.595500000000     0.758400000000     0          
H316     H      0.267100000000     0.613800000000     0.730100000000     0          
C317     C      0.252200000000     0.556200000000     0.736900000000     0          
H318     H      0.271100000000     0.547300000000     0.693700000000     0          
C319     C      0.227100000000     0.529700000000     0.777800000000     0          
C320     C      0.199600000000     0.542600000000     0.840400000000     0          
C321     C      0.197200000000     0.581900000000     0.861900000000     0          
H322     H      0.178300000000     0.590800000000     0.905100000000     0          
C323     C      0.169300000000     0.511100000000     0.893400000000     0          
H324     H      0.152500000000     0.525200000000     0.933800000000     0          
H325     H      0.184300000000     0.492600000000     0.927500000000     0          
H326     H      0.153900000000     0.497600000000     0.848900000000     0          
C327     C      0.229800000000     0.488900000000     0.749300000000     0          
C328     C      0.258300000000     0.464400000000     0.784700000000     0          
H329     H      0.275200000000     0.473500000000     0.831900000000     0          
C330     C      0.262100000000     0.426700000000     0.751700000000     0          
H331     H      0.281800000000     0.409800000000     0.776200000000     0          
C332     C      0.237500000000     0.413400000000     0.683300000000     0          
C333     C      0.209100000000     0.437900000000     0.647900000000     0          
H334     H      0.192100000000     0.428700000000     0.600700000000     0          
C335     C      0.205200000000     0.475600000000     0.680900000000     0          
C336     C      0.179900000000     0.503300000000     0.609200000000     0          
H337     H      0.165200000000     0.487000000000     0.568700000000     0          
H338     H      0.197400000000     0.519200000000     0.574600000000     0          
H339     H      0.162400000000     0.519600000000     0.642900000000     0          
C340     C      0.240900000000     0.373300000000     0.645900000000     0          
O341     O      0.170000000000     0.250400000000     0.327000000000     0          
O342     O      0.159400000000     0.305500000000     0.409700000000     0          
O343     O      0.862500000000     0.287200000000     0.089200000000     0          
O344     O      0.236400000000     0.286400000000     0.384300000000     0          
H345     H      0.228600000000     0.294400000000     0.323300000000     0          
O346     O      0.853100000000     0.225700000000     0.171900000000     0          
C347     C      0.149000000000     0.277100000000     0.354000000000     0          
C348     C      0.108400000000     0.277700000000     0.321000000000     0          
C349     C      0.095500000000     0.250200000000     0.258400000000     0          
H350     H      0.113800000000     0.232900000000     0.230100000000     0          
C351     C      0.056200000000     0.247800000000     0.236900000000     0          
H352     H      0.047300000000     0.228900000000     0.193700000000     0          
C353     C      0.029700000000     0.272900000000     0.277800000000     0          
C354     C      0.042600000000     0.300400000000     0.340400000000     0          
C355     C      0.081900000000     0.302800000000     0.361900000000     0          
H356     H      0.090800000000     0.321700000000     0.405100000000     0          
C357     C      0.011100000000     0.330700000000     0.393400000000     0          
H358     H      0.025200000000     0.347500000000     0.433800000000     0          
H359     H      0.992600000000     0.315700000000     0.427500000000     0          
H360     H      0.997600000000     0.346100000000     0.348900000000     0          
C361     C      0.988900000000     0.270200000000     0.249300000000     0          
C362     C      0.964400000000     0.241700000000     0.284700000000     0          
H363     H      0.973500000000     0.224800000000     0.331900000000     0          
C364     C      0.926700000000     0.237900000000     0.251700000000     0          
H365     H      0.909800000000     0.218200000000     0.276200000000     0          
C366     C      0.913400000000     0.262500000000     0.183300000000     0          
C367     C      0.937900000000     0.290900000000     0.147900000000     0          
H368     H      0.928700000000     0.307900000000     0.100700000000     0          
C369     C      0.975600000000     0.294800000000     0.180900000000     0          
C370     C      0.003300000000     0.320100000000     0.109200000000     0          
H371     H      0.987000000000     0.334800000000     0.068700000000     0          
H372     H      0.019200000000     0.302600000000     0.074600000000     0          
H373     H      0.019600000000     0.337600000000     0.142900000000     0          
C374     C      0.873300000000     0.259100000000     0.145900000000     0          
O375     O      0.830000000000     0.749600000000     0.327000000000     0          
O376     O      0.840600000000     0.694500000000     0.409700000000     0          
O377     O      0.137500000000     0.712800000000     0.089200000000     0          
O378     O      0.763600000000     0.713600000000     0.384300000000     0          
H379     H      0.771400000000     0.705600000000     0.323300000000     0          
O380     O      0.146900000000     0.774300000000     0.171900000000     0          
C381     C      0.851000000000     0.722900000000     0.354000000000     0          
C382     C      0.891600000000     0.722300000000     0.321000000000     0          
C383     C      0.904500000000     0.749800000000     0.258400000000     0          
H384     H      0.886200000000     0.767100000000     0.230100000000     0          
C385     C      0.943800000000     0.752200000000     0.236900000000     0          
H386     H      0.952700000000     0.771100000000     0.193700000000     0          
C387     C      0.970300000000     0.727100000000     0.277800000000     0          
C388     C      0.957400000000     0.699600000000     0.340400000000     0          
C389     C      0.918100000000     0.697200000000     0.361900000000     0          
H390     H      0.909200000000     0.678300000000     0.405100000000     0          
C391     C      0.988900000000     0.669300000000     0.393400000000     0          
H392     H      0.974800000000     0.652500000000     0.433800000000     0          
H393     H      0.007400000000     0.684300000000     0.427500000000     0          
H394     H      0.002400000000     0.653900000000     0.348900000000     0          
C395     C      0.011100000000     0.729800000000     0.249300000000     0          
C396     C      0.035600000000     0.758300000000     0.284700000000     0          
H397     H      0.026500000000     0.775200000000     0.331900000000     0          
C398     C      0.073300000000     0.762100000000     0.251700000000     0          
H399     H      0.090200000000     0.781800000000     0.276200000000     0          
C400     C      0.086600000000     0.737500000000     0.183300000000     0          
C401     C      0.062100000000     0.709100000000     0.147900000000     0          
H402     H      0.071300000000     0.692100000000     0.100700000000     0          
C403     C      0.024400000000     0.705200000000     0.180900000000     0          
C404     C      0.996700000000     0.679900000000     0.109200000000     0          
H405     H      0.013000000000     0.665200000000     0.068700000000     0          
H406     H      0.980800000000     0.697400000000     0.074600000000     0          
H407     H      0.980400000000     0.662400000000     0.142900000000     0          
C408     C      0.126700000000     0.740900000000     0.145900000000     0          
O409     O      0.749600000000     0.830000000000     0.673000000000     0          
O410     O      0.694500000000     0.840600000000     0.590300000000     0          
O411     O      0.712800000000     0.137500000000     0.910800000000     0          
O412     O      0.713600000000     0.763600000000     0.615700000000     0          
H413     H      0.705600000000     0.771400000000     0.676700000000     0          
O414     O      0.774300000000     0.146900000000     0.828100000000     0          
C415     C      0.722900000000     0.851000000000     0.646000000000     0          
C416     C      0.722300000000     0.891600000000     0.679000000000     0          
C417     C      0.749800000000     0.904500000000     0.741600000000     0          
H418     H      0.767100000000     0.886200000000     0.769900000000     0          
C419     C      0.752200000000     0.943800000000     0.763100000000     0          
H420     H      0.771100000000     0.952700000000     0.806300000000     0          
C421     C      0.727100000000     0.970300000000     0.722200000000     0          
C422     C      0.699600000000     0.957400000000     0.659600000000     0          
C423     C      0.697200000000     0.918100000000     0.638100000000     0          
H424     H      0.678300000000     0.909200000000     0.594900000000     0          
C425     C      0.669300000000     0.988900000000     0.606600000000     0          
H426     H      0.652500000000     0.974800000000     0.566200000000     0          
H427     H      0.684300000000     0.007400000000     0.572500000000     0          
H428     H      0.653900000000     0.002400000000     0.651100000000     0          
C429     C      0.729800000000     0.011100000000     0.750700000000     0          
C430     C      0.758300000000     0.035600000000     0.715300000000     0          
H431     H      0.775200000000     0.026500000000     0.668100000000     0          
C432     C      0.762100000000     0.073300000000     0.748300000000     0          
H433     H      0.781800000000     0.090200000000     0.723800000000     0          
C434     C      0.737500000000     0.086600000000     0.816700000000     0          
C435     C      0.709100000000     0.062100000000     0.852100000000     0          
H436     H      0.692100000000     0.071300000000     0.899300000000     0          
C437     C      0.705200000000     0.024400000000     0.819100000000     0          
C438     C      0.679900000000     0.996700000000     0.890800000000     0          
H439     H      0.665200000000     0.013000000000     0.931300000000     0          
H440     H      0.697400000000     0.980800000000     0.925400000000     0          
H441     H      0.662400000000     0.980400000000     0.857100000000     0          
C442     C      0.740900000000     0.126700000000     0.854100000000     0          
O443     O      0.250400000000     0.170000000000     0.673000000000     0          
O444     O      0.305500000000     0.159400000000     0.590300000000     0          
O445     O      0.287200000000     0.862500000000     0.910800000000     0          
O446     O      0.286400000000     0.236400000000     0.615700000000     0          
H447     H      0.294400000000     0.228600000000     0.676700000000     0          
O448     O      0.225700000000     0.853100000000     0.828100000000     0          
C449     C      0.277100000000     0.149000000000     0.646000000000     0          
C450     C      0.277700000000     0.108400000000     0.679000000000     0          
C451     C      0.250200000000     0.095500000000     0.741600000000     0          
H452     H      0.232900000000     0.113800000000     0.769900000000     0          
C453     C      0.247800000000     0.056200000000     0.763100000000     0          
H454     H      0.228900000000     0.047300000000     0.806300000000     0          
C455     C      0.272900000000     0.029700000000     0.722200000000     0          
C456     C      0.300400000000     0.042600000000     0.659600000000     0          
C457     C      0.302800000000     0.081900000000     0.638100000000     0          
H458     H      0.321700000000     0.090800000000     0.594900000000     0          
C459     C      0.330700000000     0.011100000000     0.606600000000     0          
H460     H      0.347500000000     0.025200000000     0.566200000000     0          
H461     H      0.315700000000     0.992600000000     0.572500000000     0          
H462     H      0.346100000000     0.997600000000     0.651100000000     0          
C463     C      0.270200000000     0.988900000000     0.750700000000     0          
C464     C      0.241700000000     0.964400000000     0.715300000000     0          
H465     H      0.224800000000     0.973500000000     0.668100000000     0          
C466     C      0.237900000000     0.926700000000     0.748300000000     0          
H467     H      0.218200000000     0.909800000000     0.723800000000     0          
C468     C      0.262500000000     0.913400000000     0.816700000000     0          
C469     C      0.290900000000     0.937900000000     0.852100000000     0          
H470     H      0.307900000000     0.928700000000     0.899300000000     0          
C471     C      0.294800000000     0.975600000000     0.819100000000     0          
C472     C      0.320100000000     0.003300000000     0.890800000000     0          
H473     H      0.334800000000     0.987000000000     0.931300000000     0          
H474     H      0.302600000000     0.019200000000     0.925400000000     0          
H475     H      0.337600000000     0.019600000000     0.857100000000     0          
C476     C      0.259100000000     0.873300000000     0.854100000000     0          
O477     O      0.330000000000     0.750400000000     0.173000000000     0          
O478     O      0.340600000000     0.805500000000     0.090300000000     0          
O479     O      0.637500000000     0.787200000000     0.410800000000     0          
O480     O      0.263600000000     0.786400000000     0.115700000000     0          
H481     H      0.271400000000     0.794400000000     0.176700000000     0          
O482     O      0.646900000000     0.725700000000     0.328100000000     0          
C483     C      0.351000000000     0.777100000000     0.146000000000     0          
C484     C      0.391600000000     0.777700000000     0.179000000000     0          
C485     C      0.404500000000     0.750200000000     0.241600000000     0          
H486     H      0.386200000000     0.732900000000     0.269900000000     0          
C487     C      0.443800000000     0.747800000000     0.263100000000     0          
H488     H      0.452700000000     0.728900000000     0.306300000000     0          
C489     C      0.470300000000     0.772900000000     0.222200000000     0          
C490     C      0.457400000000     0.800400000000     0.159600000000     0          
C491     C      0.418100000000     0.802800000000     0.138100000000     0          
H492     H      0.409200000000     0.821700000000     0.094900000000     0          
C493     C      0.488900000000     0.830700000000     0.106600000000     0          
H494     H      0.474800000000     0.847500000000     0.066200000000     0          
H495     H      0.507400000000     0.815700000000     0.072500000000     0          
H496     H      0.502400000000     0.846100000000     0.151100000000     0          
C497     C      0.511100000000     0.770200000000     0.250700000000     0          
C498     C      0.535600000000     0.741700000000     0.215300000000     0          
H499     H      0.526500000000     0.724800000000     0.168100000000     0          
C500     C      0.573300000000     0.737900000000     0.248300000000     0          
H501     H      0.590200000000     0.718200000000     0.223800000000     0          
C502     C      0.586600000000     0.762500000000     0.316700000000     0          
C503     C      0.562100000000     0.790900000000     0.352100000000     0          
H504     H      0.571300000000     0.807900000000     0.399300000000     0          
C505     C      0.524400000000     0.794800000000     0.319100000000     0          
C506     C      0.496700000000     0.820100000000     0.390800000000     0          
H507     H      0.513000000000     0.834800000000     0.431300000000     0          
H508     H      0.480800000000     0.802600000000     0.425400000000     0          
H509     H      0.480400000000     0.837600000000     0.357100000000     0          
C510     C      0.626700000000     0.759100000000     0.354100000000     0          
O511     O      0.670000000000     0.249600000000     0.173000000000     0          
O512     O      0.659400000000     0.194500000000     0.090300000000     0          
O513     O      0.362500000000     0.212800000000     0.410800000000     0          
O514     O      0.736400000000     0.213600000000     0.115700000000     0          
H515     H      0.728600000000     0.205600000000     0.176700000000     0          
O516     O      0.353100000000     0.274300000000     0.328100000000     0          
C517     C      0.649000000000     0.222900000000     0.146000000000     0          
C518     C      0.608400000000     0.222300000000     0.179000000000     0          
C519     C      0.595500000000     0.249800000000     0.241600000000     0          
H520     H      0.613800000000     0.267100000000     0.269900000000     0          
C521     C      0.556200000000     0.252200000000     0.263100000000     0          
H522     H      0.547300000000     0.271100000000     0.306300000000     0          
C523     C      0.529700000000     0.227100000000     0.222200000000     0          
C524     C      0.542600000000     0.199600000000     0.159600000000     0          
C525     C      0.581900000000     0.197200000000     0.138100000000     0          
H526     H      0.590800000000     0.178300000000     0.094900000000     0          
C527     C      0.511100000000     0.169300000000     0.106600000000     0          
H528     H      0.525200000000     0.152500000000     0.066200000000     0          
H529     H      0.492600000000     0.184300000000     0.072500000000     0          
H530     H      0.497600000000     0.153900000000     0.151100000000     0          
C531     C      0.488900000000     0.229800000000     0.250700000000     0          
C532     C      0.464400000000     0.258300000000     0.215300000000     0          
H533     H      0.473500000000     0.275200000000     0.168100000000     0          
C534     C      0.426700000000     0.262100000000     0.248300000000     0          
H535     H      0.409800000000     0.281800000000     0.223800000000     0          
C536     C      0.413400000000     0.237500000000     0.316700000000     0          
C537     C      0.437900000000     0.209100000000     0.352100000000     0          
H538     H      0.428700000000     0.192100000000     0.399300000000     0          
C539     C      0.475600000000     0.205200000000     0.319100000000     0          
C540     C      0.503300000000     0.179900000000     0.390800000000     0          
H541     H      0.487000000000     0.165200000000     0.431300000000     0          
H542     H      0.519200000000     0.197400000000     0.425400000000     0          
H543     H      0.519600000000     0.162400000000     0.357100000000     0          
C544     C      0.373300000000     0.240900000000     0.354100000000     0          
Zr545    Zr     0.274000000000     0.726000000000     0.119800000000     0          
Zr546    Zr     0.202200000000     0.797800000000     0.880800000000     0          
O547     O      0.156400000000     0.843600000000     0.919000000000     0          
O548     O      0.214200000000     0.785800000000     0.264900000000     0          
O549     O      0.262800000000     0.737200000000     0.263300000000     0          
C550     C      0.238600000000     0.761400000000     0.306000000000     0          
C551     C      0.262700000000     0.737300000000     0.461000000000     0          
C552     C      0.238900000000     0.761100000000     0.408500000000     0          
C553     C      0.213200000000     0.786800000000     0.450300000000     0          
H554     H      0.196500000000     0.803500000000     0.415800000000     0          
N555     N      0.288700000000     0.711300000000     0.415500000000     0          
H556     H      0.289400000000     0.710600000000     0.354400000000     0          
H557     H      0.304400000000     0.695600000000     0.448000000000     0          
C558     C      0.101400000000     0.898600000000     0.918100000000     0          
H559     H      0.111300000000     0.888700000000     0.861600000000     0          
C560     C      0.072800000000     0.927200000000     0.918100000000     0          
H561     H      0.062900000000     0.937100000000     0.861600000000     0          
C562     C      0.013700000000     0.986300000000     0.917100000000     0          
O563     O      0.028800000000     0.971200000000     0.833700000000     0          
C564     C      0.009500000000     0.990500000000     0.760200000000     0          
H565     H      0.019250000000     0.980750000000     0.703500000000     0          
Zr566    Zr     0.726000000000     0.274000000000     0.119800000000     0          
Zr567    Zr     0.797800000000     0.202200000000     0.880800000000     0          
O568     O      0.843600000000     0.156400000000     0.919000000000     0          
O569     O      0.785800000000     0.214200000000     0.264900000000     0          
O570     O      0.737200000000     0.262800000000     0.263300000000     0          
C571     C      0.761400000000     0.238600000000     0.306000000000     0          
C572     C      0.737300000000     0.262700000000     0.461000000000     0          
C573     C      0.761100000000     0.238900000000     0.408500000000     0          
C574     C      0.786800000000     0.213200000000     0.450300000000     0          
H575     H      0.803500000000     0.196500000000     0.415800000000     0          
C576     C      0.898600000000     0.101400000000     0.918100000000     0          
H577     H      0.888700000000     0.111300000000     0.861600000000     0          
C578     C      0.927200000000     0.072800000000     0.918100000000     0          
H579     H      0.937100000000     0.062900000000     0.861600000000     0          
C580     C      0.986300000000     0.013700000000     0.917100000000     0          
Zr581    Zr     0.774000000000     0.774000000000     0.619800000000     0          
Zr582    Zr     0.702200000000     0.702200000000     0.380800000000     0          
O583     O      0.656400000000     0.656400000000     0.419000000000     0          
O584     O      0.714200000000     0.714200000000     0.764900000000     0          
O585     O      0.762800000000     0.762800000000     0.763300000000     0          
C586     C      0.738600000000     0.738600000000     0.806000000000     0          
C587     C      0.762700000000     0.762700000000     0.961000000000     0          
C588     C      0.738900000000     0.738900000000     0.908500000000     0          
C589     C      0.713200000000     0.713200000000     0.950300000000     0          
H590     H      0.696500000000     0.696500000000     0.915800000000     0          
N591     N      0.788700000000     0.788700000000     0.915500000000     0          
H592     H      0.789400000000     0.789400000000     0.854400000000     0          
H593     H      0.804400000000     0.804400000000     0.948000000000     0          
C594     C      0.601400000000     0.601400000000     0.418100000000     0          
H595     H      0.611300000000     0.611300000000     0.361600000000     0          
C596     C      0.572800000000     0.572800000000     0.418100000000     0          
H597     H      0.562900000000     0.562900000000     0.361600000000     0          
C598     C      0.513700000000     0.513700000000     0.417100000000     0          
O599     O      0.528800000000     0.528800000000     0.333700000000     0          
C600     C      0.509500000000     0.509500000000     0.260200000000     0          
H601     H      0.519250000000     0.519250000000     0.203500000000     0          
Zr602    Zr     0.226000000000     0.226000000000     0.619800000000     0          
Zr603    Zr     0.297800000000     0.297800000000     0.380800000000     0          
O604     O      0.343600000000     0.343600000000     0.419000000000     0          
O605     O      0.285800000000     0.285800000000     0.764900000000     0          
O606     O      0.237200000000     0.237200000000     0.763300000000     0          
C607     C      0.261400000000     0.261400000000     0.806000000000     0          
C608     C      0.237300000000     0.237300000000     0.961000000000     0          
C609     C      0.261100000000     0.261100000000     0.908500000000     0          
C610     C      0.286800000000     0.286800000000     0.950300000000     0          
H611     H      0.303500000000     0.303500000000     0.915800000000     0          
C612     C      0.398600000000     0.398600000000     0.418100000000     0          
H613     H      0.388700000000     0.388700000000     0.361600000000     0          
C614     C      0.427200000000     0.427200000000     0.418100000000     0          
H615     H      0.437100000000     0.437100000000     0.361600000000     0          
C616     C      0.486300000000     0.486300000000     0.417100000000     0          
Zr617    Zr     0.226000000000     0.226000000000     0.380200000000     0          
Zr618    Zr     0.297800000000     0.297800000000     0.619200000000     0          
O619     O      0.343600000000     0.343600000000     0.581000000000     0          
O620     O      0.285800000000     0.285800000000     0.235100000000     0          
O621     O      0.237200000000     0.237200000000     0.236700000000     0          
C622     C      0.261400000000     0.261400000000     0.194000000000     0          
C623     C      0.237300000000     0.237300000000     0.039000000000     0          
C624     C      0.261100000000     0.261100000000     0.091500000000     0          
C625     C      0.286800000000     0.286800000000     0.049700000000     0          
H626     H      0.303500000000     0.303500000000     0.084200000000     0          
N627     N      0.211300000000     0.211300000000     0.084500000000     0          
H628     H      0.210600000000     0.210600000000     0.145600000000     0          
H629     H      0.195600000000     0.195600000000     0.052000000000     0          
C630     C      0.398600000000     0.398600000000     0.581900000000     0          
H631     H      0.388700000000     0.388700000000     0.638400000000     0          
C632     C      0.427200000000     0.427200000000     0.581900000000     0          
H633     H      0.437100000000     0.437100000000     0.638400000000     0          
C634     C      0.486300000000     0.486300000000     0.582900000000     0          
O635     O      0.471200000000     0.471200000000     0.666300000000     0          
C636     C      0.490500000000     0.490500000000     0.739800000000     0          
H637     H      0.480750000000     0.480750000000     0.796500000000     0          
Zr638    Zr     0.774000000000     0.774000000000     0.380200000000     0          
Zr639    Zr     0.702200000000     0.702200000000     0.619200000000     0          
O640     O      0.656400000000     0.656400000000     0.581000000000     0          
O641     O      0.714200000000     0.714200000000     0.235100000000     0          
O642     O      0.762800000000     0.762800000000     0.236700000000     0          
C643     C      0.738600000000     0.738600000000     0.194000000000     0          
C644     C      0.762700000000     0.762700000000     0.039000000000     0          
C645     C      0.738900000000     0.738900000000     0.091500000000     0          
C646     C      0.713200000000     0.713200000000     0.049700000000     0          
H647     H      0.696500000000     0.696500000000     0.084200000000     0          
C648     C      0.601400000000     0.601400000000     0.581900000000     0          
H649     H      0.611300000000     0.611300000000     0.638400000000     0          
C650     C      0.572800000000     0.572800000000     0.581900000000     0          
H651     H      0.562900000000     0.562900000000     0.638400000000     0          
C652     C      0.513700000000     0.513700000000     0.582900000000     0          
Zr653    Zr     0.726000000000     0.274000000000     0.880200000000     0          
Zr654    Zr     0.797800000000     0.202200000000     0.119200000000     0          
O655     O      0.843600000000     0.156400000000     0.081000000000     0          
O656     O      0.785800000000     0.214200000000     0.735100000000     0          
O657     O      0.737200000000     0.262800000000     0.736700000000     0          
C658     C      0.761400000000     0.238600000000     0.694000000000     0          
C659     C      0.737300000000     0.262700000000     0.539000000000     0          
C660     C      0.761100000000     0.238900000000     0.591500000000     0          
C661     C      0.786800000000     0.213200000000     0.549700000000     0          
H662     H      0.803500000000     0.196500000000     0.584200000000     0          
N663     N      0.711300000000     0.288700000000     0.584500000000     0          
H664     H      0.710600000000     0.289400000000     0.645600000000     0          
H665     H      0.695600000000     0.304400000000     0.552000000000     0          
C666     C      0.898600000000     0.101400000000     0.081900000000     0          
H667     H      0.888700000000     0.111300000000     0.138400000000     0          
C668     C      0.927200000000     0.072800000000     0.081900000000     0          
H669     H      0.937100000000     0.062900000000     0.138400000000     0          
C670     C      0.986300000000     0.013700000000     0.082900000000     0          
O671     O      0.971200000000     0.028800000000     0.166300000000     0          
C672     C      0.990500000000     0.009500000000     0.239800000000     0          
H673     H      0.980750000000     0.019250000000     0.296500000000     0          
Zr674    Zr     0.274000000000     0.726000000000     0.880200000000     0          
Zr675    Zr     0.202200000000     0.797800000000     0.119200000000     0          
O676     O      0.156400000000     0.843600000000     0.081000000000     0          
O677     O      0.214200000000     0.785800000000     0.735100000000     0          
O678     O      0.262800000000     0.737200000000     0.736700000000     0          
C679     C      0.238600000000     0.761400000000     0.694000000000     0          
C680     C      0.262700000000     0.737300000000     0.539000000000     0          
C681     C      0.238900000000     0.761100000000     0.591500000000     0          
C682     C      0.213200000000     0.786800000000     0.549700000000     0          
H683     H      0.196500000000     0.803500000000     0.584200000000     0          
C684     C      0.101400000000     0.898600000000     0.081900000000     0          
H685     H      0.111300000000     0.888700000000     0.138400000000     0          
C686     C      0.072800000000     0.927200000000     0.081900000000     0          
H687     H      0.062900000000     0.937100000000     0.138400000000     0          
C688     C      0.013700000000     0.986300000000     0.082900000000     0          
Zr689    Zr     0.187900000000     0.710600000000     0.000000000000     0          
O690     O      0.298400000000     0.749400000000     0.000000000000     0          
H691     H      0.324400000000     0.737800000000     0.000000000000     0          
O692     O      0.177600000000     0.771000000000     0.000000000000     0          
H693     H      0.150000000000     0.774400000000     0.000000000000     0          
Zr694    Zr     0.812100000000     0.289400000000     0.000000000000     0          
O695     O      0.701600000000     0.250600000000     0.000000000000     0          
H696     H      0.675600000000     0.262200000000     0.000000000000     0          
O697     O      0.822400000000     0.229000000000     0.000000000000     0          
H698     H      0.850000000000     0.225600000000     0.000000000000     0          
Zr699    Zr     0.789400000000     0.687900000000     0.500000000000     0          
O700     O      0.750600000000     0.798400000000     0.500000000000     0          
H701     H      0.762200000000     0.824400000000     0.500000000000     0          
O702     O      0.729000000000     0.677600000000     0.500000000000     0          
H703     H      0.725600000000     0.650000000000     0.500000000000     0          
Zr704    Zr     0.210600000000     0.312100000000     0.500000000000     0          
O705     O      0.249400000000     0.201600000000     0.500000000000     0          
H706     H      0.237800000000     0.175600000000     0.500000000000     0          
O707     O      0.271000000000     0.322400000000     0.500000000000     0          
H708     H      0.274400000000     0.350000000000     0.500000000000     0          
Zr709    Zr     0.312100000000     0.210600000000     0.500000000000     0          
O710     O      0.201600000000     0.249400000000     0.500000000000     0          
H711     H      0.175600000000     0.237800000000     0.500000000000     0          
O712     O      0.322400000000     0.271000000000     0.500000000000     0          
H713     H      0.350000000000     0.274400000000     0.500000000000     0          
Zr714    Zr     0.687900000000     0.789400000000     0.500000000000     0          
O715     O      0.798400000000     0.750600000000     0.500000000000     0          
H716     H      0.824400000000     0.762200000000     0.500000000000     0          
O717     O      0.677600000000     0.729000000000     0.500000000000     0          
H718     H      0.650000000000     0.725600000000     0.500000000000     0          
Zr719    Zr     0.710600000000     0.187900000000     0.000000000000     0          
O720     O      0.749400000000     0.298400000000     0.000000000000     0          
H721     H      0.737800000000     0.324400000000     0.000000000000     0          
O722     O      0.771000000000     0.177600000000     0.000000000000     0          
H723     H      0.774400000000     0.150000000000     0.000000000000     0          
Zr724    Zr     0.289400000000     0.812100000000     0.000000000000     0          
O725     O      0.250600000000     0.701600000000     0.000000000000     0          
H726     H      0.262200000000     0.675600000000     0.000000000000     0          
O727     O      0.229000000000     0.822400000000     0.000000000000     0          
H728     H      0.225600000000     0.850000000000     0.000000000000     0          
C729     C      0.146700000000     0.853300000000     0.000000000000     0          
C730     C      0.115700000000     0.884300000000     0.000000000000     0          
C731     C      0.058450000000     0.941550000000     0.000000000000     0          
C732     C      0.027400000000     0.972600000000     0.000000000000     0          
C733     C      0.853300000000     0.146700000000     0.000000000000     0          
C734     C      0.884300000000     0.115700000000     0.000000000000     0          
C735     C      0.941550000000     0.058450000000     0.000000000000     0          
C736     C      0.972600000000     0.027400000000     0.000000000000     0          
C737     C      0.646700000000     0.646700000000     0.500000000000     0          
C738     C      0.615700000000     0.615700000000     0.500000000000     0          
C739     C      0.558450000000     0.558450000000     0.500000000000     0          
C740     C      0.527400000000     0.527400000000     0.500000000000     0          
C741     C      0.353300000000     0.353300000000     0.500000000000     0          
C742     C      0.384300000000     0.384300000000     0.500000000000     0          
C743     C      0.441550000000     0.441550000000     0.500000000000     0          
C744     C      0.472600000000     0.472600000000     0.500000000000     0          
H745     H      0.982000000000     0.982000000000     0.764000000000     0          
H746     H      0.018000000000     0.018000000000     0.764000000000     0          
H747     H      0.482000000000     0.518000000000     0.264000000000     0          
H748     H      0.514300000000     0.485700000000     0.264000000000     0          
H749     H      0.485700000000     0.514300000000     0.736000000000     0          
H750     H      0.514300000000     0.485700000000     0.736000000000     0          
H751     H      0.018000000000     0.018000000000     0.236000000000     0          
H752     H      0.985700000000     0.985700000000     0.236000000000     0          
H753     H      0.474080000000     0.474080000000     0.350930000000     0          
H754     H      0.525920000000     0.525920000000     0.649070000000     0          
H755     H      0.025430000000     0.974570000000     0.150020000000     0          
H756     H      0.974570000000     0.025430000000     0.849980000000     0          
H757     H      0.283020000000     0.716980000000     0.577750000000     0          
H758     H      0.716260000000     0.283740000000     0.426710000000     0          
H759     H      0.216260000000     0.216260000000     0.926710000000     0          
H760     H      0.783020000000     0.783020000000     0.077750000000     0          


