data_RUKDUY

_audit_creation_method RASPA-1.0
_audit_creation_date 2020-11-2
_audit_author_name 'Rocio Bueno-Perez'

_cell_length_a    29.861
_cell_length_b    29.861
_cell_length_c    29.861
_cell_angle_alpha 90
_cell_angle_beta  90
_cell_angle_gamma 90
_cell_volume      26626.4

_symmetry_cell_setting          triclinic
_symmetry_space_group_name_Hall 'P 1'
_symmetry_space_group_name_H-M  'P 1'
_symmetry_Int_Tables_number     1

_symmetry_equiv_pos_as_xyz 'x,y,z'

loop_
_atom_site_label
_atom_site_type_symbol
_atom_site_fract_x
_atom_site_fract_y
_atom_site_fract_z
_atom_site_charge
C1       C      0.660700000000     0.718300000000     0.985300000000     0          
H2       H      0.654900000000     0.747300000000     0.975700000000     0          
C3       C      0.627900000000     0.684400000000     0.986600000000     0          
H4       H      0.598300000000     0.690600000000     0.978900000000     0          
C5       C      0.339300000000     0.781700000000     0.485300000000     0          
H6       H      0.345100000000     0.752700000000     0.475700000000     0          
C7       C      0.372100000000     0.815600000000     0.486600000000     0          
H8       H      0.401700000000     0.809400000000     0.478900000000     0          
C9       C      0.839300000000     0.781700000000     0.985300000000     0          
H10      H      0.845100000000     0.752700000000     0.975700000000     0          
C11      C      0.872100000000     0.815600000000     0.986600000000     0          
H12      H      0.901700000000     0.809400000000     0.978900000000     0          
C13      C      0.339300000000     0.218300000000     0.514700000000     0          
H14      H      0.345100000000     0.247300000000     0.524300000000     0          
C15      C      0.372100000000     0.184400000000     0.513400000000     0          
H16      H      0.401700000000     0.190600000000     0.521100000000     0          
C17      C      0.660700000000     0.781700000000     0.514700000000     0          
H18      H      0.654900000000     0.752700000000     0.524300000000     0          
C19      C      0.627900000000     0.815600000000     0.513400000000     0          
H20      H      0.598300000000     0.809400000000     0.521100000000     0          
C21      C      0.160700000000     0.781700000000     0.014700000000     0          
H22      H      0.154900000000     0.752700000000     0.024300000000     0          
C23      C      0.127900000000     0.815600000000     0.013400000000     0          
H24      H      0.098300000000     0.809400000000     0.021100000000     0          
C25      C      0.160700000000     0.281700000000     0.514700000000     0          
H26      H      0.154900000000     0.252700000000     0.524300000000     0          
C27      C      0.127900000000     0.315600000000     0.513400000000     0          
H28      H      0.098300000000     0.309400000000     0.521100000000     0          
C29      C      0.485300000000     0.160700000000     0.718300000000     0          
H30      H      0.475700000000     0.154900000000     0.747300000000     0          
C31      C      0.486600000000     0.127900000000     0.684400000000     0          
H32      H      0.478900000000     0.098300000000     0.690600000000     0          
C33      C      0.985300000000     0.660700000000     0.718300000000     0          
H34      H      0.975700000000     0.654900000000     0.747300000000     0          
C35      C      0.986600000000     0.627900000000     0.684400000000     0          
H36      H      0.978900000000     0.598300000000     0.690600000000     0          
C37      C      0.485300000000     0.339300000000     0.781700000000     0          
H38      H      0.475700000000     0.345100000000     0.752700000000     0          
C39      C      0.486600000000     0.372100000000     0.815600000000     0          
H40      H      0.478900000000     0.401700000000     0.809400000000     0          
C41      C      0.485300000000     0.839300000000     0.281700000000     0          
H42      H      0.475700000000     0.845100000000     0.252700000000     0          
C43      C      0.486600000000     0.872100000000     0.315600000000     0          
H44      H      0.478900000000     0.901700000000     0.309400000000     0          
C45      C      0.985300000000     0.839300000000     0.781700000000     0          
H46      H      0.975700000000     0.845100000000     0.752700000000     0          
C47      C      0.986600000000     0.872100000000     0.815600000000     0          
H48      H      0.978900000000     0.901700000000     0.809400000000     0          
C49      C      0.514700000000     0.839300000000     0.718300000000     0          
H50      H      0.524300000000     0.845100000000     0.747300000000     0          
C51      C      0.513400000000     0.872100000000     0.684400000000     0          
H52      H      0.521100000000     0.901700000000     0.690600000000     0          
C53      C      0.014700000000     0.339300000000     0.718300000000     0          
H54      H      0.024300000000     0.345100000000     0.747300000000     0          
C55      C      0.013400000000     0.372100000000     0.684400000000     0          
H56      H      0.021100000000     0.401700000000     0.690600000000     0          
C57      C      0.514700000000     0.660700000000     0.781700000000     0          
H58      H      0.524300000000     0.654900000000     0.752700000000     0          
C59      C      0.513400000000     0.627900000000     0.815600000000     0          
H60      H      0.521100000000     0.598300000000     0.809400000000     0          
C61      C      0.014700000000     0.160700000000     0.781700000000     0          
H62      H      0.024300000000     0.154900000000     0.752700000000     0          
C63      C      0.013400000000     0.127900000000     0.815600000000     0          
H64      H      0.021100000000     0.098300000000     0.809400000000     0          
C65      C      0.218300000000     0.485300000000     0.660700000000     0          
H66      H      0.247300000000     0.475700000000     0.654900000000     0          
C67      C      0.184400000000     0.486600000000     0.627900000000     0          
H68      H      0.190600000000     0.478900000000     0.598300000000     0          
C69      C      0.218300000000     0.985300000000     0.160700000000     0          
H70      H      0.247300000000     0.975700000000     0.154900000000     0          
C71      C      0.184400000000     0.986600000000     0.127900000000     0          
H72      H      0.190600000000     0.978900000000     0.098300000000     0          
C73      C      0.718300000000     0.485300000000     0.160700000000     0          
H74      H      0.747300000000     0.475700000000     0.154900000000     0          
C75      C      0.684400000000     0.486600000000     0.127900000000     0          
H76      H      0.690600000000     0.478900000000     0.098300000000     0          
C77      C      0.781700000000     0.485300000000     0.339300000000     0          
H78      H      0.752700000000     0.475700000000     0.345100000000     0          
C79      C      0.815600000000     0.486600000000     0.372100000000     0          
H80      H      0.809400000000     0.478900000000     0.401700000000     0          
C81      C      0.281700000000     0.485300000000     0.839300000000     0          
H82      H      0.252700000000     0.475700000000     0.845100000000     0          
C83      C      0.315600000000     0.486600000000     0.872100000000     0          
H84      H      0.309400000000     0.478900000000     0.901700000000     0          
C85      C      0.281700000000     0.985300000000     0.339300000000     0          
H86      H      0.252700000000     0.975700000000     0.345100000000     0          
C87      C      0.315600000000     0.986600000000     0.372100000000     0          
H88      H      0.309400000000     0.978900000000     0.401700000000     0          
C89      C      0.218300000000     0.014700000000     0.839300000000     0          
H90      H      0.247300000000     0.024300000000     0.845100000000     0          
C91      C      0.184400000000     0.013400000000     0.872100000000     0          
H92      H      0.190600000000     0.021100000000     0.901700000000     0          
C93      C      0.281700000000     0.014700000000     0.660700000000     0          
H94      H      0.252700000000     0.024300000000     0.654900000000     0          
C95      C      0.315600000000     0.013400000000     0.627900000000     0          
H96      H      0.309400000000     0.021100000000     0.598300000000     0          
C97      C      0.718300000000     0.660700000000     0.014700000000     0          
H98      H      0.747300000000     0.654900000000     0.024300000000     0          
C99      C      0.684400000000     0.627900000000     0.013400000000     0          
H100     H      0.690600000000     0.598300000000     0.021100000000     0          
C101     C      0.781700000000     0.839300000000     0.014700000000     0          
H102     H      0.752700000000     0.845100000000     0.024300000000     0          
C103     C      0.815600000000     0.872100000000     0.013400000000     0          
H104     H      0.809400000000     0.901700000000     0.021100000000     0          
C105     C      0.281700000000     0.839300000000     0.514700000000     0          
H106     H      0.252700000000     0.845100000000     0.524300000000     0          
C107     C      0.315600000000     0.872100000000     0.513400000000     0          
H108     H      0.309400000000     0.901700000000     0.521100000000     0          
C109     C      0.218300000000     0.339300000000     0.485300000000     0          
H110     H      0.247300000000     0.345100000000     0.475700000000     0          
C111     C      0.184400000000     0.372100000000     0.486600000000     0          
H112     H      0.190600000000     0.401700000000     0.478900000000     0          
C113     C      0.218300000000     0.839300000000     0.985300000000     0          
H114     H      0.247300000000     0.845100000000     0.975700000000     0          
C115     C      0.184400000000     0.872100000000     0.986600000000     0          
H116     H      0.190600000000     0.901700000000     0.978900000000     0          
C117     C      0.718300000000     0.839300000000     0.485300000000     0          
H118     H      0.747300000000     0.845100000000     0.475700000000     0          
C119     C      0.684400000000     0.872100000000     0.486600000000     0          
H120     H      0.690600000000     0.901700000000     0.478900000000     0          
C121     C      0.281700000000     0.160700000000     0.485300000000     0          
H122     H      0.252700000000     0.154900000000     0.475700000000     0          
C123     C      0.315600000000     0.127900000000     0.486600000000     0          
H124     H      0.309400000000     0.098300000000     0.478900000000     0          
C125     C      0.160700000000     0.985300000000     0.781700000000     0          
H126     H      0.154900000000     0.975700000000     0.752700000000     0          
C127     C      0.127900000000     0.986600000000     0.815600000000     0          
H128     H      0.098300000000     0.978900000000     0.809400000000     0          
C129     C      0.339300000000     0.985300000000     0.718300000000     0          
H130     H      0.345100000000     0.975700000000     0.747300000000     0          
C131     C      0.372100000000     0.986600000000     0.684400000000     0          
H132     H      0.401700000000     0.978900000000     0.690600000000     0          
C133     C      0.339300000000     0.514700000000     0.781700000000     0          
H134     H      0.345100000000     0.524300000000     0.752700000000     0          
C135     C      0.372100000000     0.513400000000     0.815600000000     0          
H136     H      0.401700000000     0.521100000000     0.809400000000     0          
C137     C      0.339300000000     0.014700000000     0.281700000000     0          
H138     H      0.345100000000     0.024300000000     0.252700000000     0          
C139     C      0.372100000000     0.013400000000     0.315600000000     0          
H140     H      0.401700000000     0.021100000000     0.309400000000     0          
C141     C      0.839300000000     0.514700000000     0.281700000000     0          
H142     H      0.845100000000     0.524300000000     0.252700000000     0          
C143     C      0.872100000000     0.513400000000     0.315600000000     0          
H144     H      0.901700000000     0.521100000000     0.309400000000     0          
C145     C      0.660700000000     0.514700000000     0.218300000000     0          
H146     H      0.654900000000     0.524300000000     0.247300000000     0          
C147     C      0.627900000000     0.513400000000     0.184400000000     0          
H148     H      0.598300000000     0.521100000000     0.190600000000     0          
C149     C      0.160700000000     0.514700000000     0.718300000000     0          
H150     H      0.154900000000     0.524300000000     0.747300000000     0          
C151     C      0.127900000000     0.513400000000     0.684400000000     0          
H152     H      0.098300000000     0.521100000000     0.690600000000     0          
C153     C      0.160700000000     0.014700000000     0.218300000000     0          
H154     H      0.154900000000     0.024300000000     0.247300000000     0          
C155     C      0.127900000000     0.013400000000     0.184400000000     0          
H156     H      0.098300000000     0.021100000000     0.190600000000     0          
C157     C      0.485300000000     0.718300000000     0.839300000000     0          
H158     H      0.475700000000     0.747300000000     0.845100000000     0          
C159     C      0.486600000000     0.684400000000     0.872100000000     0          
H160     H      0.478900000000     0.690600000000     0.901700000000     0          
C161     C      0.985300000000     0.218300000000     0.839300000000     0          
H162     H      0.975700000000     0.247300000000     0.845100000000     0          
C163     C      0.986600000000     0.184400000000     0.872100000000     0          
H164     H      0.978900000000     0.190600000000     0.901700000000     0          
C165     C      0.485300000000     0.781700000000     0.660700000000     0          
H166     H      0.475700000000     0.752700000000     0.654900000000     0          
C167     C      0.486600000000     0.815600000000     0.627900000000     0          
H168     H      0.478900000000     0.809400000000     0.598300000000     0          
C169     C      0.985300000000     0.281700000000     0.660700000000     0          
H170     H      0.975700000000     0.252700000000     0.654900000000     0          
C171     C      0.986600000000     0.315600000000     0.627900000000     0          
H172     H      0.978900000000     0.309400000000     0.598300000000     0          
C173     C      0.514700000000     0.218300000000     0.660700000000     0          
H174     H      0.524300000000     0.247300000000     0.654900000000     0          
C175     C      0.513400000000     0.184400000000     0.627900000000     0          
H176     H      0.521100000000     0.190600000000     0.598300000000     0          
C177     C      0.014700000000     0.718300000000     0.660700000000     0          
H178     H      0.024300000000     0.747300000000     0.654900000000     0          
C179     C      0.013400000000     0.684400000000     0.627900000000     0          
H180     H      0.021100000000     0.690600000000     0.598300000000     0          
C181     C      0.514700000000     0.781700000000     0.339300000000     0          
H182     H      0.524300000000     0.752700000000     0.345100000000     0          
C183     C      0.513400000000     0.815600000000     0.372100000000     0          
H184     H      0.521100000000     0.809400000000     0.401700000000     0          
C185     C      0.514700000000     0.281700000000     0.839300000000     0          
H186     H      0.524300000000     0.252700000000     0.845100000000     0          
C187     C      0.513400000000     0.315600000000     0.872100000000     0          
H188     H      0.521100000000     0.309400000000     0.901700000000     0          
C189     C      0.014700000000     0.781700000000     0.839300000000     0          
H190     H      0.024300000000     0.752700000000     0.845100000000     0          
C191     C      0.013400000000     0.815600000000     0.872100000000     0          
H192     H      0.021100000000     0.809400000000     0.901700000000     0          
C193     C      0.339300000000     0.281700000000     0.014700000000     0          
H194     H      0.345100000000     0.252700000000     0.024300000000     0          
C195     C      0.372100000000     0.315600000000     0.013400000000     0          
H196     H      0.401700000000     0.309400000000     0.021100000000     0          
C197     C      0.839300000000     0.281700000000     0.514700000000     0          
H198     H      0.845100000000     0.252700000000     0.524300000000     0          
C199     C      0.872100000000     0.315600000000     0.513400000000     0          
H200     H      0.901700000000     0.309400000000     0.521100000000     0          
C201     C      0.660700000000     0.218300000000     0.514700000000     0          
H202     H      0.654900000000     0.247300000000     0.524300000000     0          
C203     C      0.627900000000     0.184400000000     0.513400000000     0          
H204     H      0.598300000000     0.190600000000     0.521100000000     0          
C205     C      0.160700000000     0.218300000000     0.014700000000     0          
H206     H      0.154900000000     0.247300000000     0.024300000000     0          
C207     C      0.127900000000     0.184400000000     0.013400000000     0          
H208     H      0.098300000000     0.190600000000     0.021100000000     0          
C209     C      0.160700000000     0.718300000000     0.514700000000     0          
H210     H      0.154900000000     0.747300000000     0.524300000000     0          
C211     C      0.127900000000     0.684400000000     0.513400000000     0          
H212     H      0.098300000000     0.690600000000     0.521100000000     0          
C213     C      0.660700000000     0.281700000000     0.985300000000     0          
H214     H      0.654900000000     0.252700000000     0.975700000000     0          
C215     C      0.627900000000     0.315600000000     0.986600000000     0          
H216     H      0.598300000000     0.309400000000     0.978900000000     0          
C217     C      0.339300000000     0.718300000000     0.985300000000     0          
H218     H      0.345100000000     0.747300000000     0.975700000000     0          
C219     C      0.372100000000     0.684400000000     0.986600000000     0          
H220     H      0.401700000000     0.690600000000     0.978900000000     0          
C221     C      0.839300000000     0.218300000000     0.985300000000     0          
H222     H      0.845100000000     0.247300000000     0.975700000000     0          
C223     C      0.872100000000     0.184400000000     0.986600000000     0          
H224     H      0.901700000000     0.190600000000     0.978900000000     0          
C225     C      0.839300000000     0.718300000000     0.485300000000     0          
H226     H      0.845100000000     0.747300000000     0.475700000000     0          
C227     C      0.872100000000     0.684400000000     0.486600000000     0          
H228     H      0.901700000000     0.690600000000     0.478900000000     0          
C229     C      0.014700000000     0.339300000000     0.281700000000     0          
H230     H      0.024300000000     0.345100000000     0.252700000000     0          
C231     C      0.013400000000     0.372100000000     0.315600000000     0          
H232     H      0.021100000000     0.401700000000     0.309400000000     0          
C233     C      0.514700000000     0.660700000000     0.218300000000     0          
H234     H      0.524300000000     0.654900000000     0.247300000000     0          
C235     C      0.513400000000     0.627900000000     0.184400000000     0          
H236     H      0.521100000000     0.598300000000     0.190600000000     0          
C237     C      0.014700000000     0.160700000000     0.218300000000     0          
H238     H      0.024300000000     0.154900000000     0.247300000000     0          
C239     C      0.013400000000     0.127900000000     0.184400000000     0          
H240     H      0.021100000000     0.098300000000     0.190600000000     0          
C241     C      0.485300000000     0.160700000000     0.281700000000     0          
H242     H      0.475700000000     0.154900000000     0.252700000000     0          
C243     C      0.486600000000     0.127900000000     0.315600000000     0          
H244     H      0.478900000000     0.098300000000     0.309400000000     0          
C245     C      0.985300000000     0.660700000000     0.281700000000     0          
H246     H      0.975700000000     0.654900000000     0.252700000000     0          
C247     C      0.986600000000     0.627900000000     0.315600000000     0          
H248     H      0.978900000000     0.598300000000     0.309400000000     0          
C249     C      0.485300000000     0.339300000000     0.218300000000     0          
H250     H      0.475700000000     0.345100000000     0.247300000000     0          
C251     C      0.486600000000     0.372100000000     0.184400000000     0          
H252     H      0.478900000000     0.401700000000     0.190600000000     0          
C253     C      0.985300000000     0.839300000000     0.218300000000     0          
H254     H      0.975700000000     0.845100000000     0.247300000000     0          
C255     C      0.986600000000     0.872100000000     0.184400000000     0          
H256     H      0.978900000000     0.901700000000     0.190600000000     0          
C257     C      0.781700000000     0.014700000000     0.839300000000     0          
H258     H      0.752700000000     0.024300000000     0.845100000000     0          
C259     C      0.815600000000     0.013400000000     0.872100000000     0          
H260     H      0.809400000000     0.021100000000     0.901700000000     0          
C261     C      0.718300000000     0.014700000000     0.660700000000     0          
H262     H      0.747300000000     0.024300000000     0.654900000000     0          
C263     C      0.684400000000     0.013400000000     0.627900000000     0          
H264     H      0.690600000000     0.021100000000     0.598300000000     0          
C265     C      0.781700000000     0.485300000000     0.660700000000     0          
H266     H      0.752700000000     0.475700000000     0.654900000000     0          
C267     C      0.815600000000     0.486600000000     0.627900000000     0          
H268     H      0.809400000000     0.478900000000     0.598300000000     0          
C269     C      0.781700000000     0.985300000000     0.160700000000     0          
H270     H      0.752700000000     0.975700000000     0.154900000000     0          
C271     C      0.815600000000     0.986600000000     0.127900000000     0          
H272     H      0.809400000000     0.978900000000     0.098300000000     0          
C273     C      0.281700000000     0.485300000000     0.160700000000     0          
H274     H      0.252700000000     0.475700000000     0.154900000000     0          
C275     C      0.315600000000     0.486600000000     0.127900000000     0          
H276     H      0.309400000000     0.478900000000     0.098300000000     0          
C277     C      0.218300000000     0.485300000000     0.339300000000     0          
H278     H      0.247300000000     0.475700000000     0.345100000000     0          
C279     C      0.184400000000     0.486600000000     0.372100000000     0          
H280     H      0.190600000000     0.478900000000     0.401700000000     0          
C281     C      0.718300000000     0.485300000000     0.839300000000     0          
H282     H      0.747300000000     0.475700000000     0.845100000000     0          
C283     C      0.684400000000     0.486600000000     0.872100000000     0          
H284     H      0.690600000000     0.478900000000     0.901700000000     0          
C285     C      0.718300000000     0.985300000000     0.339300000000     0          
H286     H      0.747300000000     0.975700000000     0.345100000000     0          
C287     C      0.684400000000     0.986600000000     0.372100000000     0          
H288     H      0.690600000000     0.978900000000     0.401700000000     0          
C289     C      0.781700000000     0.339300000000     0.485300000000     0          
H290     H      0.752700000000     0.345100000000     0.475700000000     0          
C291     C      0.815600000000     0.372100000000     0.486600000000     0          
H292     H      0.809400000000     0.401700000000     0.478900000000     0          
C293     C      0.281700000000     0.339300000000     0.985300000000     0          
H294     H      0.252700000000     0.345100000000     0.975700000000     0          
C295     C      0.315600000000     0.372100000000     0.986600000000     0          
H296     H      0.309400000000     0.401700000000     0.978900000000     0          
C297     C      0.218300000000     0.660700000000     0.485300000000     0          
H298     H      0.247300000000     0.654900000000     0.475700000000     0          
C299     C      0.184400000000     0.627900000000     0.486600000000     0          
H300     H      0.190600000000     0.598300000000     0.478900000000     0          
C301     C      0.218300000000     0.160700000000     0.985300000000     0          
H302     H      0.247300000000     0.154900000000     0.975700000000     0          
C303     C      0.184400000000     0.127900000000     0.986600000000     0          
H304     H      0.190600000000     0.098300000000     0.978900000000     0          
C305     C      0.718300000000     0.160700000000     0.485300000000     0          
H306     H      0.747300000000     0.154900000000     0.475700000000     0          
C307     C      0.684400000000     0.127900000000     0.486600000000     0          
H308     H      0.690600000000     0.098300000000     0.478900000000     0          
C309     C      0.781700000000     0.660700000000     0.514700000000     0          
H310     H      0.752700000000     0.654900000000     0.524300000000     0          
C311     C      0.815600000000     0.627900000000     0.513400000000     0          
H312     H      0.809400000000     0.598300000000     0.521100000000     0          
C313     C      0.781700000000     0.160700000000     0.014700000000     0          
H314     H      0.752700000000     0.154900000000     0.024300000000     0          
C315     C      0.815600000000     0.127900000000     0.013400000000     0          
H316     H      0.809400000000     0.098300000000     0.021100000000     0          
C317     C      0.281700000000     0.660700000000     0.014700000000     0          
H318     H      0.252700000000     0.654900000000     0.024300000000     0          
C319     C      0.315600000000     0.627900000000     0.013400000000     0          
H320     H      0.309400000000     0.598300000000     0.021100000000     0          
C321     C      0.718300000000     0.339300000000     0.014700000000     0          
H322     H      0.747300000000     0.345100000000     0.024300000000     0          
C323     C      0.684400000000     0.372100000000     0.013400000000     0          
H324     H      0.690600000000     0.401700000000     0.021100000000     0          
C325     C      0.339300000000     0.514700000000     0.218300000000     0          
H326     H      0.345100000000     0.524300000000     0.247300000000     0          
C327     C      0.372100000000     0.513400000000     0.184400000000     0          
H328     H      0.401700000000     0.521100000000     0.190600000000     0          
C329     C      0.839300000000     0.514700000000     0.718300000000     0          
H330     H      0.845100000000     0.524300000000     0.747300000000     0          
C331     C      0.872100000000     0.513400000000     0.684400000000     0          
H332     H      0.901700000000     0.521100000000     0.690600000000     0          
C333     C      0.839300000000     0.014700000000     0.218300000000     0          
H334     H      0.845100000000     0.024300000000     0.247300000000     0          
C335     C      0.872100000000     0.013400000000     0.184400000000     0          
H336     H      0.901700000000     0.021100000000     0.190600000000     0          
C337     C      0.660700000000     0.514700000000     0.781700000000     0          
H338     H      0.654900000000     0.524300000000     0.752700000000     0          
C339     C      0.627900000000     0.513400000000     0.815600000000     0          
H340     H      0.598300000000     0.521100000000     0.809400000000     0          
C341     C      0.660700000000     0.014700000000     0.281700000000     0          
H342     H      0.654900000000     0.024300000000     0.252700000000     0          
C343     C      0.627900000000     0.013400000000     0.315600000000     0          
H344     H      0.598300000000     0.021100000000     0.309400000000     0          
C345     C      0.160700000000     0.514700000000     0.281700000000     0          
H346     H      0.154900000000     0.524300000000     0.252700000000     0          
C347     C      0.127900000000     0.513400000000     0.315600000000     0          
H348     H      0.098300000000     0.521100000000     0.309400000000     0          
C349     C      0.660700000000     0.985300000000     0.718300000000     0          
H350     H      0.654900000000     0.975700000000     0.747300000000     0          
C351     C      0.627900000000     0.986600000000     0.684400000000     0          
H352     H      0.598300000000     0.978900000000     0.690600000000     0          
C353     C      0.839300000000     0.985300000000     0.781700000000     0          
H354     H      0.845100000000     0.975700000000     0.752700000000     0          
C355     C      0.872100000000     0.986600000000     0.815600000000     0          
H356     H      0.901700000000     0.978900000000     0.809400000000     0          
C357     C      0.514700000000     0.281700000000     0.160700000000     0          
H358     H      0.524300000000     0.252700000000     0.154900000000     0          
C359     C      0.513400000000     0.315600000000     0.127900000000     0          
H360     H      0.521100000000     0.309400000000     0.098300000000     0          
C361     C      0.014700000000     0.781700000000     0.160700000000     0          
H362     H      0.024300000000     0.752700000000     0.154900000000     0          
C363     C      0.013400000000     0.815600000000     0.127900000000     0          
H364     H      0.021100000000     0.809400000000     0.098300000000     0          
C365     C      0.514700000000     0.218300000000     0.339300000000     0          
H366     H      0.524300000000     0.247300000000     0.345100000000     0          
C367     C      0.513400000000     0.184400000000     0.372100000000     0          
H368     H      0.521100000000     0.190600000000     0.401700000000     0          
C369     C      0.014700000000     0.718300000000     0.339300000000     0          
H370     H      0.024300000000     0.747300000000     0.345100000000     0          
C371     C      0.013400000000     0.684400000000     0.372100000000     0          
H372     H      0.021100000000     0.690600000000     0.401700000000     0          
C373     C      0.985300000000     0.281700000000     0.339300000000     0          
H374     H      0.975700000000     0.252700000000     0.345100000000     0          
C375     C      0.986600000000     0.315600000000     0.372100000000     0          
H376     H      0.978900000000     0.309400000000     0.401700000000     0          
C377     C      0.485300000000     0.718300000000     0.160700000000     0          
H378     H      0.475700000000     0.747300000000     0.154900000000     0          
C379     C      0.486600000000     0.684400000000     0.127900000000     0          
H380     H      0.478900000000     0.690600000000     0.098300000000     0          
C381     C      0.985300000000     0.218300000000     0.160700000000     0          
H382     H      0.975700000000     0.247300000000     0.154900000000     0          
C383     C      0.986600000000     0.184400000000     0.127900000000     0          
H384     H      0.978900000000     0.190600000000     0.098300000000     0          
Zr385    Zr     0.500000000000     0.082590000000     0.500000000000     0          
Zr386    Zr     0.500000000000     0.582590000000     0.000000000000     0          
Zr387    Zr     0.000000000000     0.082590000000     0.000000000000     0          
Zr388    Zr     0.000000000000     0.582590000000     0.500000000000     0          
Zr389    Zr     0.500000000000     0.917410000000     0.500000000000     0          
Zr390    Zr     0.500000000000     0.417410000000     0.000000000000     0          
Zr391    Zr     0.000000000000     0.917410000000     0.000000000000     0          
Zr392    Zr     0.000000000000     0.417410000000     0.500000000000     0          
Zr393    Zr     0.500000000000     0.500000000000     0.082590000000     0          
Zr394    Zr     0.500000000000     0.000000000000     0.582590000000     0          
Zr395    Zr     0.000000000000     0.500000000000     0.582590000000     0          
Zr396    Zr     0.000000000000     0.000000000000     0.082590000000     0          
Zr397    Zr     0.500000000000     0.500000000000     0.917410000000     0          
Zr398    Zr     0.500000000000     0.000000000000     0.417410000000     0          
Zr399    Zr     0.000000000000     0.500000000000     0.417410000000     0          
Zr400    Zr     0.000000000000     0.000000000000     0.917410000000     0          
Zr401    Zr     0.082590000000     0.500000000000     0.500000000000     0          
Zr402    Zr     0.082590000000     0.000000000000     0.000000000000     0          
Zr403    Zr     0.582590000000     0.500000000000     0.000000000000     0          
Zr404    Zr     0.582590000000     0.000000000000     0.500000000000     0          
Zr405    Zr     0.917410000000     0.500000000000     0.500000000000     0          
Zr406    Zr     0.917410000000     0.000000000000     0.000000000000     0          
Zr407    Zr     0.417410000000     0.500000000000     0.000000000000     0          
Zr408    Zr     0.417410000000     0.000000000000     0.500000000000     0          
O409     O      0.563850000000     0.119360000000     0.500000000000     0          
O410     O      0.563850000000     0.619360000000     0.000000000000     0          
O411     O      0.063850000000     0.119360000000     0.000000000000     0          
O412     O      0.063850000000     0.619360000000     0.500000000000     0          
O413     O      0.436150000000     0.880640000000     0.500000000000     0          
O414     O      0.436150000000     0.380640000000     0.000000000000     0          
O415     O      0.936150000000     0.880640000000     0.000000000000     0          
O416     O      0.936150000000     0.380640000000     0.500000000000     0          
O417     O      0.436150000000     0.119360000000     0.500000000000     0          
O418     O      0.436150000000     0.619360000000     0.000000000000     0          
O419     O      0.936150000000     0.119360000000     0.000000000000     0          
O420     O      0.936150000000     0.619360000000     0.500000000000     0          
O421     O      0.563850000000     0.880640000000     0.500000000000     0          
O422     O      0.563850000000     0.380640000000     0.000000000000     0          
O423     O      0.063850000000     0.880640000000     0.000000000000     0          
O424     O      0.063850000000     0.380640000000     0.500000000000     0          
O425     O      0.500000000000     0.563850000000     0.119360000000     0          
O426     O      0.500000000000     0.063850000000     0.619360000000     0          
O427     O      0.000000000000     0.563850000000     0.619360000000     0          
O428     O      0.000000000000     0.063850000000     0.119360000000     0          
O429     O      0.500000000000     0.436150000000     0.880640000000     0          
O430     O      0.500000000000     0.936150000000     0.380640000000     0          
O431     O      0.000000000000     0.436150000000     0.380640000000     0          
O432     O      0.000000000000     0.936150000000     0.880640000000     0          
O433     O      0.500000000000     0.436150000000     0.119360000000     0          
O434     O      0.500000000000     0.936150000000     0.619360000000     0          
O435     O      0.000000000000     0.436150000000     0.619360000000     0          
O436     O      0.000000000000     0.936150000000     0.119360000000     0          
O437     O      0.500000000000     0.563850000000     0.880640000000     0          
O438     O      0.500000000000     0.063850000000     0.380640000000     0          
O439     O      0.000000000000     0.563850000000     0.380640000000     0          
O440     O      0.000000000000     0.063850000000     0.880640000000     0          
O441     O      0.119360000000     0.500000000000     0.563850000000     0          
O442     O      0.119360000000     0.000000000000     0.063850000000     0          
O443     O      0.619360000000     0.500000000000     0.063850000000     0          
O444     O      0.619360000000     0.000000000000     0.563850000000     0          
O445     O      0.880640000000     0.500000000000     0.436150000000     0          
O446     O      0.880640000000     0.000000000000     0.936150000000     0          
O447     O      0.380640000000     0.500000000000     0.936150000000     0          
O448     O      0.380640000000     0.000000000000     0.436150000000     0          
O449     O      0.119360000000     0.500000000000     0.436150000000     0          
O450     O      0.119360000000     0.000000000000     0.936150000000     0          
O451     O      0.619360000000     0.500000000000     0.936150000000     0          
O452     O      0.619360000000     0.000000000000     0.436150000000     0          
O453     O      0.880640000000     0.500000000000     0.563850000000     0          
O454     O      0.880640000000     0.000000000000     0.063850000000     0          
O455     O      0.380640000000     0.500000000000     0.063850000000     0          
O456     O      0.380640000000     0.000000000000     0.563850000000     0          
O457     O      0.119360000000     0.563850000000     0.500000000000     0          
O458     O      0.119360000000     0.063850000000     0.000000000000     0          
O459     O      0.619360000000     0.563850000000     0.000000000000     0          
O460     O      0.619360000000     0.063850000000     0.500000000000     0          
O461     O      0.880640000000     0.436150000000     0.500000000000     0          
O462     O      0.880640000000     0.936150000000     0.000000000000     0          
O463     O      0.380640000000     0.436150000000     0.000000000000     0          
O464     O      0.380640000000     0.936150000000     0.500000000000     0          
O465     O      0.119360000000     0.436150000000     0.500000000000     0          
O466     O      0.119360000000     0.936150000000     0.000000000000     0          
O467     O      0.619360000000     0.436150000000     0.000000000000     0          
O468     O      0.619360000000     0.936150000000     0.500000000000     0          
O469     O      0.880640000000     0.563850000000     0.500000000000     0          
O470     O      0.880640000000     0.063850000000     0.000000000000     0          
O471     O      0.380640000000     0.563850000000     0.000000000000     0          
O472     O      0.380640000000     0.063850000000     0.500000000000     0          
O473     O      0.563850000000     0.500000000000     0.880640000000     0          
O474     O      0.563850000000     0.000000000000     0.380640000000     0          
O475     O      0.063850000000     0.500000000000     0.380640000000     0          
O476     O      0.063850000000     0.000000000000     0.880640000000     0          
O477     O      0.436150000000     0.500000000000     0.119360000000     0          
O478     O      0.436150000000     0.000000000000     0.619360000000     0          
O479     O      0.936150000000     0.500000000000     0.619360000000     0          
O480     O      0.936150000000     0.000000000000     0.119360000000     0          
O481     O      0.436150000000     0.500000000000     0.880640000000     0          
O482     O      0.436150000000     0.000000000000     0.380640000000     0          
O483     O      0.936150000000     0.500000000000     0.380640000000     0          
O484     O      0.936150000000     0.000000000000     0.880640000000     0          
O485     O      0.563850000000     0.500000000000     0.119360000000     0          
O486     O      0.563850000000     0.000000000000     0.619360000000     0          
O487     O      0.063850000000     0.500000000000     0.619360000000     0          
O488     O      0.063850000000     0.000000000000     0.119360000000     0          
O489     O      0.500000000000     0.119360000000     0.436150000000     0          
O490     O      0.500000000000     0.619360000000     0.936150000000     0          
O491     O      0.000000000000     0.119360000000     0.936150000000     0          
O492     O      0.000000000000     0.619360000000     0.436150000000     0          
O493     O      0.500000000000     0.880640000000     0.563850000000     0          
O494     O      0.500000000000     0.380640000000     0.063850000000     0          
O495     O      0.000000000000     0.880640000000     0.063850000000     0          
O496     O      0.000000000000     0.380640000000     0.563850000000     0          
O497     O      0.500000000000     0.119360000000     0.563850000000     0          
O498     O      0.500000000000     0.619360000000     0.063850000000     0          
O499     O      0.000000000000     0.119360000000     0.063850000000     0          
O500     O      0.000000000000     0.619360000000     0.563850000000     0          
O501     O      0.500000000000     0.880640000000     0.436150000000     0          
O502     O      0.500000000000     0.380640000000     0.936150000000     0          
O503     O      0.000000000000     0.880640000000     0.936150000000     0          
O504     O      0.000000000000     0.380640000000     0.436150000000     0          
O505     O      0.541000000000     0.041000000000     0.541000000000     0          
O506     O      0.459000000000     0.959000000000     0.541000000000     0          
O507     O      0.959000000000     0.959000000000     0.041000000000     0          
O508     O      0.459000000000     0.041000000000     0.459000000000     0          
O509     O      0.459000000000     0.541000000000     0.959000000000     0          
O510     O      0.959000000000     0.541000000000     0.459000000000     0          
O511     O      0.541000000000     0.959000000000     0.459000000000     0          
O512     O      0.541000000000     0.541000000000     0.041000000000     0          
O513     O      0.541000000000     0.459000000000     0.959000000000     0          
O514     O      0.459000000000     0.459000000000     0.041000000000     0          
O515     O      0.959000000000     0.459000000000     0.541000000000     0          
O516     O      0.959000000000     0.041000000000     0.959000000000     0          
O517     O      0.041000000000     0.541000000000     0.541000000000     0          
O518     O      0.041000000000     0.041000000000     0.041000000000     0          
O519     O      0.041000000000     0.459000000000     0.459000000000     0          
O520     O      0.041000000000     0.959000000000     0.959000000000     0          
O521     O      0.041000000000     0.541000000000     0.459000000000     0          
O522     O      0.041000000000     0.041000000000     0.959000000000     0          
O523     O      0.541000000000     0.541000000000     0.959000000000     0          
O524     O      0.959000000000     0.459000000000     0.459000000000     0          
O525     O      0.959000000000     0.959000000000     0.959000000000     0          
O526     O      0.041000000000     0.459000000000     0.541000000000     0          
O527     O      0.041000000000     0.959000000000     0.041000000000     0          
O528     O      0.541000000000     0.959000000000     0.541000000000     0          
O529     O      0.959000000000     0.541000000000     0.541000000000     0          
O530     O      0.959000000000     0.041000000000     0.041000000000     0          
O531     O      0.459000000000     0.541000000000     0.041000000000     0          
O532     O      0.459000000000     0.459000000000     0.959000000000     0          
O533     O      0.541000000000     0.459000000000     0.041000000000     0          
O534     O      0.541000000000     0.041000000000     0.459000000000     0          
O535     O      0.459000000000     0.041000000000     0.541000000000     0          
O536     O      0.459000000000     0.959000000000     0.459000000000     0          
C537     C      0.604300000000     0.104300000000     0.500000000000     0          
C538     C      0.640800000000     0.140800000000     0.500000000000     0          
C539     C      0.703700000000     0.203700000000     0.500000000000     0          
C540     C      0.604300000000     0.604300000000     0.000000000000     0          
C541     C      0.640800000000     0.640800000000     0.000000000000     0          
C542     C      0.703700000000     0.703700000000     0.000000000000     0          
C543     C      0.395700000000     0.895700000000     0.500000000000     0          
C544     C      0.359200000000     0.859200000000     0.500000000000     0          
C545     C      0.296300000000     0.796300000000     0.500000000000     0          
C546     C      0.395700000000     0.395700000000     0.000000000000     0          
C547     C      0.359200000000     0.359200000000     0.000000000000     0          
C548     C      0.296300000000     0.296300000000     0.000000000000     0          
C549     C      0.395700000000     0.104300000000     0.500000000000     0          
C550     C      0.359200000000     0.140800000000     0.500000000000     0          
C551     C      0.296300000000     0.203700000000     0.500000000000     0          
C552     C      0.395700000000     0.604300000000     0.000000000000     0          
C553     C      0.359200000000     0.640800000000     0.000000000000     0          
C554     C      0.296300000000     0.703700000000     0.000000000000     0          
C555     C      0.604300000000     0.895700000000     0.500000000000     0          
C556     C      0.640800000000     0.859200000000     0.500000000000     0          
C557     C      0.703700000000     0.796300000000     0.500000000000     0          
C558     C      0.604300000000     0.395700000000     0.000000000000     0          
C559     C      0.640800000000     0.359200000000     0.000000000000     0          
C560     C      0.703700000000     0.296300000000     0.000000000000     0          
C561     C      0.500000000000     0.604300000000     0.104300000000     0          
C562     C      0.500000000000     0.640800000000     0.140800000000     0          
C563     C      0.500000000000     0.703700000000     0.203700000000     0          
C564     C      0.000000000000     0.604300000000     0.604300000000     0          
C565     C      0.000000000000     0.640800000000     0.640800000000     0          
C566     C      0.000000000000     0.703700000000     0.703700000000     0          
C567     C      0.500000000000     0.395700000000     0.895700000000     0          
C568     C      0.500000000000     0.359200000000     0.859200000000     0          
C569     C      0.500000000000     0.296300000000     0.796300000000     0          
C570     C      0.000000000000     0.395700000000     0.395700000000     0          
C571     C      0.000000000000     0.359200000000     0.359200000000     0          
C572     C      0.000000000000     0.296300000000     0.296300000000     0          
C573     C      0.500000000000     0.395700000000     0.104300000000     0          
C574     C      0.500000000000     0.359200000000     0.140800000000     0          
C575     C      0.500000000000     0.296300000000     0.203700000000     0          
C576     C      0.000000000000     0.395700000000     0.604300000000     0          
C577     C      0.000000000000     0.359200000000     0.640800000000     0          
C578     C      0.000000000000     0.296300000000     0.703700000000     0          
C579     C      0.500000000000     0.604300000000     0.895700000000     0          
C580     C      0.500000000000     0.640800000000     0.859200000000     0          
C581     C      0.500000000000     0.703700000000     0.796300000000     0          
C582     C      0.000000000000     0.604300000000     0.395700000000     0          
C583     C      0.000000000000     0.640800000000     0.359200000000     0          
C584     C      0.000000000000     0.703700000000     0.296300000000     0          
C585     C      0.104300000000     0.500000000000     0.604300000000     0          
C586     C      0.140800000000     0.500000000000     0.640800000000     0          
C587     C      0.203700000000     0.500000000000     0.703700000000     0          
C588     C      0.104300000000     0.000000000000     0.104300000000     0          
C589     C      0.140800000000     0.000000000000     0.140800000000     0          
C590     C      0.203700000000     0.000000000000     0.203700000000     0          
C591     C      0.895700000000     0.500000000000     0.395700000000     0          
C592     C      0.859200000000     0.500000000000     0.359200000000     0          
C593     C      0.796300000000     0.500000000000     0.296300000000     0          
C594     C      0.895700000000     0.000000000000     0.895700000000     0          
C595     C      0.859200000000     0.000000000000     0.859200000000     0          
C596     C      0.796300000000     0.000000000000     0.796300000000     0          
C597     C      0.104300000000     0.500000000000     0.395700000000     0          
C598     C      0.140800000000     0.500000000000     0.359200000000     0          
C599     C      0.203700000000     0.500000000000     0.296300000000     0          
C600     C      0.104300000000     0.000000000000     0.895700000000     0          
C601     C      0.140800000000     0.000000000000     0.859200000000     0          
C602     C      0.203700000000     0.000000000000     0.796300000000     0          
C603     C      0.895700000000     0.500000000000     0.604300000000     0          
C604     C      0.859200000000     0.500000000000     0.640800000000     0          
C605     C      0.796300000000     0.500000000000     0.703700000000     0          
C606     C      0.895700000000     0.000000000000     0.104300000000     0          
C607     C      0.859200000000     0.000000000000     0.140800000000     0          
C608     C      0.796300000000     0.000000000000     0.203700000000     0          
C609     C      0.104300000000     0.604300000000     0.500000000000     0          
C610     C      0.140800000000     0.640800000000     0.500000000000     0          
C611     C      0.203700000000     0.703700000000     0.500000000000     0          
C612     C      0.104300000000     0.104300000000     0.000000000000     0          
C613     C      0.140800000000     0.140800000000     0.000000000000     0          
C614     C      0.203700000000     0.203700000000     0.000000000000     0          
C615     C      0.895700000000     0.395700000000     0.500000000000     0          
C616     C      0.859200000000     0.359200000000     0.500000000000     0          
C617     C      0.796300000000     0.296300000000     0.500000000000     0          
C618     C      0.895700000000     0.895700000000     0.000000000000     0          
C619     C      0.859200000000     0.859200000000     0.000000000000     0          
C620     C      0.796300000000     0.796300000000     0.000000000000     0          
C621     C      0.104300000000     0.395700000000     0.500000000000     0          
C622     C      0.140800000000     0.359200000000     0.500000000000     0          
C623     C      0.203700000000     0.296300000000     0.500000000000     0          
C624     C      0.104300000000     0.895700000000     0.000000000000     0          
C625     C      0.140800000000     0.859200000000     0.000000000000     0          
C626     C      0.203700000000     0.796300000000     0.000000000000     0          
C627     C      0.895700000000     0.604300000000     0.500000000000     0          
C628     C      0.859200000000     0.640800000000     0.500000000000     0          
C629     C      0.796300000000     0.703700000000     0.500000000000     0          
C630     C      0.895700000000     0.104300000000     0.000000000000     0          
C631     C      0.859200000000     0.140800000000     0.000000000000     0          
C632     C      0.796300000000     0.203700000000     0.000000000000     0          
C633     C      0.604300000000     0.500000000000     0.895700000000     0          
C634     C      0.640800000000     0.500000000000     0.859200000000     0          
C635     C      0.703700000000     0.500000000000     0.796300000000     0          
C636     C      0.604300000000     0.000000000000     0.395700000000     0          
C637     C      0.640800000000     0.000000000000     0.359200000000     0          
C638     C      0.703700000000     0.000000000000     0.296300000000     0          
C639     C      0.395700000000     0.500000000000     0.104300000000     0          
C640     C      0.359200000000     0.500000000000     0.140800000000     0          
C641     C      0.296300000000     0.500000000000     0.203700000000     0          
C642     C      0.395700000000     0.000000000000     0.604300000000     0          
C643     C      0.359200000000     0.000000000000     0.640800000000     0          
C644     C      0.296300000000     0.000000000000     0.703700000000     0          
C645     C      0.395700000000     0.500000000000     0.895700000000     0          
C646     C      0.359200000000     0.500000000000     0.859200000000     0          
C647     C      0.296300000000     0.500000000000     0.796300000000     0          
C648     C      0.395700000000     0.000000000000     0.395700000000     0          
C649     C      0.359200000000     0.000000000000     0.359200000000     0          
C650     C      0.296300000000     0.000000000000     0.296300000000     0          
C651     C      0.604300000000     0.500000000000     0.104300000000     0          
C652     C      0.640800000000     0.500000000000     0.140800000000     0          
C653     C      0.703700000000     0.500000000000     0.203700000000     0          
C654     C      0.604300000000     0.000000000000     0.604300000000     0          
C655     C      0.640800000000     0.000000000000     0.640800000000     0          
C656     C      0.703700000000     0.000000000000     0.703700000000     0          
C657     C      0.500000000000     0.104300000000     0.395700000000     0          
C658     C      0.500000000000     0.140800000000     0.359200000000     0          
C659     C      0.500000000000     0.203700000000     0.296300000000     0          
C660     C      0.000000000000     0.104300000000     0.895700000000     0          
C661     C      0.000000000000     0.140800000000     0.859200000000     0          
C662     C      0.000000000000     0.203700000000     0.796300000000     0          
C663     C      0.500000000000     0.895700000000     0.604300000000     0          
C664     C      0.500000000000     0.859200000000     0.640800000000     0          
C665     C      0.500000000000     0.796300000000     0.703700000000     0          
C666     C      0.000000000000     0.895700000000     0.104300000000     0          
C667     C      0.000000000000     0.859200000000     0.140800000000     0          
C668     C      0.000000000000     0.796300000000     0.203700000000     0          
C669     C      0.500000000000     0.104300000000     0.604300000000     0          
C670     C      0.500000000000     0.140800000000     0.640800000000     0          
C671     C      0.500000000000     0.203700000000     0.703700000000     0          
C672     C      0.000000000000     0.104300000000     0.104300000000     0          
C673     C      0.000000000000     0.140800000000     0.140800000000     0          
C674     C      0.000000000000     0.203700000000     0.203700000000     0          
C675     C      0.500000000000     0.895700000000     0.395700000000     0          
C676     C      0.500000000000     0.859200000000     0.359200000000     0          
C677     C      0.500000000000     0.796300000000     0.296300000000     0          
C678     C      0.000000000000     0.895700000000     0.895700000000     0          
C679     C      0.000000000000     0.859200000000     0.859200000000     0          
C680     C      0.000000000000     0.796300000000     0.796300000000     0          
Br681    Br     0.738500000000     0.261500000000     0.426000000000     0          
Br682    Br     0.261500000000     0.738500000000     0.426000000000     0          
Br683    Br     0.261500000000     0.238500000000     0.926000000000     0          
Br684    Br     0.761500000000     0.738500000000     0.926000000000     0          
Br685    Br     0.761500000000     0.261500000000     0.074000000000     0          
Br686    Br     0.761500000000     0.761500000000     0.574000000000     0          
Br687    Br     0.238500000000     0.738500000000     0.074000000000     0          
Br688    Br     0.238500000000     0.238500000000     0.574000000000     0          
Br689    Br     0.426000000000     0.238500000000     0.761500000000     0          
Br690    Br     0.926000000000     0.738500000000     0.761500000000     0          
Br691    Br     0.926000000000     0.238500000000     0.261500000000     0          
Br692    Br     0.426000000000     0.761500000000     0.238500000000     0          
Br693    Br     0.074000000000     0.261500000000     0.761500000000     0          
Br694    Br     0.574000000000     0.738500000000     0.738500000000     0          
Br695    Br     0.574000000000     0.238500000000     0.238500000000     0          
Br696    Br     0.074000000000     0.738500000000     0.238500000000     0          
Br697    Br     0.261500000000     0.926000000000     0.238500000000     0          
Br698    Br     0.738500000000     0.426000000000     0.261500000000     0          
Br699    Br     0.738500000000     0.926000000000     0.761500000000     0          
Br700    Br     0.238500000000     0.426000000000     0.761500000000     0          
Br701    Br     0.261500000000     0.574000000000     0.261500000000     0          
Br702    Br     0.761500000000     0.574000000000     0.761500000000     0          
Br703    Br     0.761500000000     0.074000000000     0.261500000000     0          
Br704    Br     0.238500000000     0.074000000000     0.738500000000     0          
Br705    Br     0.761500000000     0.238500000000     0.574000000000     0          
Br706    Br     0.738500000000     0.761500000000     0.074000000000     0          
Br707    Br     0.238500000000     0.261500000000     0.074000000000     0          
Br708    Br     0.238500000000     0.761500000000     0.574000000000     0          
Br709    Br     0.261500000000     0.261500000000     0.426000000000     0          
Br710    Br     0.261500000000     0.761500000000     0.926000000000     0          
Br711    Br     0.738500000000     0.738500000000     0.426000000000     0          
Br712    Br     0.738500000000     0.238500000000     0.926000000000     0          
Br713    Br     0.738500000000     0.426000000000     0.738500000000     0          
Br714    Br     0.738500000000     0.926000000000     0.238500000000     0          
Br715    Br     0.238500000000     0.426000000000     0.238500000000     0          
Br716    Br     0.261500000000     0.926000000000     0.761500000000     0          
Br717    Br     0.761500000000     0.574000000000     0.238500000000     0          
Br718    Br     0.761500000000     0.074000000000     0.738500000000     0          
Br719    Br     0.238500000000     0.574000000000     0.761500000000     0          
Br720    Br     0.238500000000     0.074000000000     0.261500000000     0          
Br721    Br     0.426000000000     0.761500000000     0.761500000000     0          
Br722    Br     0.926000000000     0.761500000000     0.261500000000     0          
Br723    Br     0.426000000000     0.238500000000     0.238500000000     0          
Br724    Br     0.926000000000     0.238500000000     0.738500000000     0          
Br725    Br     0.574000000000     0.261500000000     0.738500000000     0          
Br726    Br     0.074000000000     0.261500000000     0.238500000000     0          
Br727    Br     0.074000000000     0.761500000000     0.738500000000     0          
Br728    Br     0.574000000000     0.738500000000     0.261500000000     0          
C729     C      0.737900000000     0.237900000000     0.485300000000     0          
C730     C      0.262100000000     0.262100000000     0.985300000000     0          
C731     C      0.762100000000     0.762100000000     0.985300000000     0          
C732     C      0.262100000000     0.237900000000     0.514700000000     0          
C733     C      0.262100000000     0.737900000000     0.014700000000     0          
C734     C      0.762100000000     0.737900000000     0.514700000000     0          
C735     C      0.485300000000     0.737900000000     0.237900000000     0          
C736     C      0.485300000000     0.262100000000     0.762100000000     0          
C737     C      0.985300000000     0.262100000000     0.262100000000     0          
C738     C      0.985300000000     0.762100000000     0.762100000000     0          
C739     C      0.514700000000     0.737900000000     0.762100000000     0          
C740     C      0.762100000000     0.485300000000     0.262100000000     0          
C741     C      0.762100000000     0.985300000000     0.762100000000     0          
C742     C      0.237900000000     0.514700000000     0.262100000000     0          
C743     C      0.737900000000     0.514700000000     0.762100000000     0          
C744     C      0.762100000000     0.014700000000     0.237900000000     0          
C745     C      0.237900000000     0.237900000000     0.014700000000     0          
C746     C      0.737900000000     0.737900000000     0.014700000000     0          
C747     C      0.762100000000     0.262100000000     0.514700000000     0          
C748     C      0.237900000000     0.262100000000     0.485300000000     0          
C749     C      0.237900000000     0.762100000000     0.985300000000     0          
C750     C      0.737900000000     0.762100000000     0.485300000000     0          
C751     C      0.737900000000     0.985300000000     0.262100000000     0          
C752     C      0.262100000000     0.485300000000     0.237900000000     0          
C753     C      0.762100000000     0.485300000000     0.737900000000     0          
C754     C      0.737900000000     0.514700000000     0.237900000000     0          
C755     C      0.737900000000     0.014700000000     0.737900000000     0          
C756     C      0.485300000000     0.762100000000     0.737900000000     0          
C757     C      0.514700000000     0.237900000000     0.737900000000     0          
C758     C      0.014700000000     0.237900000000     0.237900000000     0          
C759     C      0.014700000000     0.737900000000     0.737900000000     0          
C760     C      0.514700000000     0.762100000000     0.262100000000     0          
C761     C      0.262100000000     0.762100000000     0.514700000000     0          
C762     C      0.737900000000     0.262100000000     0.985300000000     0          
C763     C      0.985300000000     0.737900000000     0.262100000000     0          
C764     C      0.485300000000     0.262100000000     0.237900000000     0          
C765     C      0.985300000000     0.262100000000     0.737900000000     0          
C766     C      0.237900000000     0.514700000000     0.737900000000     0          
C767     C      0.237900000000     0.014700000000     0.237900000000     0          
C768     C      0.237900000000     0.985300000000     0.762100000000     0          
C769     C      0.237900000000     0.737900000000     0.485300000000     0          
C770     C      0.762100000000     0.237900000000     0.014700000000     0          
C771     C      0.262100000000     0.014700000000     0.737900000000     0          
C772     C      0.262100000000     0.485300000000     0.762100000000     0          
C773     C      0.262100000000     0.985300000000     0.262100000000     0          
C774     C      0.014700000000     0.762100000000     0.237900000000     0          
C775     C      0.514700000000     0.237900000000     0.262100000000     0          
C776     C      0.014700000000     0.237900000000     0.762100000000     0          


