data_RUKDIM

_audit_creation_method RASPA-1.0
_audit_creation_date 2020-11-2
_audit_author_name 'Rocio Bueno-Perez'

_cell_length_a    30.2386
_cell_length_b    30.2386
_cell_length_c    30.2386
_cell_angle_alpha 90
_cell_angle_beta  90
_cell_angle_gamma 90
_cell_volume      27649.4

_symmetry_cell_setting          cubic
_symmetry_space_group_name_Hall 'P 1'
_symmetry_space_group_name_H-M  'P 1'
_symmetry_Int_Tables_number     1

_symmetry_equiv_pos_as_xyz 'x,y,z'

loop_
_atom_site_label
_atom_site_type_symbol
_atom_site_fract_x
_atom_site_fract_y
_atom_site_fract_z
_atom_site_charge
Zr1      Zr     0.500000000000     0.081430000000     0.500000000000     0          
O1       O      0.564080000000     0.117520000000     0.500000000000     0          
C3       C      0.682100000000     0.125600000000     0.500000000000     0          
H1       H      0.690000000000     0.095200000000     0.500000000000     0          
C4       C      0.715000000000     0.158100000000     0.500000000000     0          
H2       H      0.745300000000     0.150000000000     0.500000000000     0          
O2       O      0.539830000000     0.039830000000     0.460170000000     0          
C1       C      0.603600000000     0.103600000000     0.500000000000     0          
C2       C      0.638100000000     0.138100000000     0.500000000000     0          
C5       C      0.702700000000     0.202700000000     0.500000000000     0          
C6       C      0.736200000000     0.236200000000     0.500000000000     0          
Zr1      Zr     0.918570000000     0.500000000000     0.500000000000     0          
O1       O      0.882480000000     0.564080000000     0.500000000000     0          
C3       C      0.874400000000     0.682100000000     0.500000000000     0          
H1       H      0.904800000000     0.690000000000     0.500000000000     0          
C4       C      0.841900000000     0.715000000000     0.500000000000     0          
H2       H      0.850000000000     0.745300000000     0.500000000000     0          
O2       O      0.960170000000     0.539830000000     0.460170000000     0          
C1       C      0.896400000000     0.603600000000     0.500000000000     0          
C2       C      0.861900000000     0.638100000000     0.500000000000     0          
C5       C      0.797300000000     0.702700000000     0.500000000000     0          
C6       C      0.763800000000     0.736200000000     0.500000000000     0          
Zr1      Zr     0.500000000000     0.918570000000     0.500000000000     0          
O1       O      0.435920000000     0.882480000000     0.500000000000     0          
C3       C      0.317900000000     0.874400000000     0.500000000000     0          
H1       H      0.310000000000     0.904800000000     0.500000000000     0          
C4       C      0.285000000000     0.841900000000     0.500000000000     0          
H2       H      0.254700000000     0.850000000000     0.500000000000     0          
O2       O      0.460170000000     0.960170000000     0.460170000000     0          
C1       C      0.396400000000     0.896400000000     0.500000000000     0          
C2       C      0.361900000000     0.861900000000     0.500000000000     0          
C5       C      0.297300000000     0.797300000000     0.500000000000     0          
C6       C      0.263800000000     0.763800000000     0.500000000000     0          
Zr1      Zr     0.081430000000     0.500000000000     0.500000000000     0          
O1       O      0.117520000000     0.435920000000     0.500000000000     0          
C3       C      0.125600000000     0.317900000000     0.500000000000     0          
H1       H      0.095200000000     0.310000000000     0.500000000000     0          
C4       C      0.158100000000     0.285000000000     0.500000000000     0          
H2       H      0.150000000000     0.254700000000     0.500000000000     0          
O2       O      0.039830000000     0.460170000000     0.460170000000     0          
C1       C      0.103600000000     0.396400000000     0.500000000000     0          
C2       C      0.138100000000     0.361900000000     0.500000000000     0          
C5       C      0.202700000000     0.297300000000     0.500000000000     0          
C6       C      0.236200000000     0.263800000000     0.500000000000     0          
O1       O      0.564080000000     0.882480000000     0.500000000000     0          
C3       C      0.682100000000     0.874400000000     0.500000000000     0          
H1       H      0.690000000000     0.904800000000     0.500000000000     0          
C4       C      0.715000000000     0.841900000000     0.500000000000     0          
H2       H      0.745300000000     0.850000000000     0.500000000000     0          
O2       O      0.539830000000     0.960170000000     0.539830000000     0          
C1       C      0.603600000000     0.896400000000     0.500000000000     0          
C2       C      0.638100000000     0.861900000000     0.500000000000     0          
C5       C      0.702700000000     0.797300000000     0.500000000000     0          
C6       C      0.736200000000     0.763800000000     0.500000000000     0          
O1       O      0.117520000000     0.564080000000     0.500000000000     0          
C3       C      0.125600000000     0.682100000000     0.500000000000     0          
H1       H      0.095200000000     0.690000000000     0.500000000000     0          
C4       C      0.158100000000     0.715000000000     0.500000000000     0          
H2       H      0.150000000000     0.745300000000     0.500000000000     0          
O2       O      0.039830000000     0.539830000000     0.539830000000     0          
C1       C      0.103600000000     0.603600000000     0.500000000000     0          
C2       C      0.138100000000     0.638100000000     0.500000000000     0          
C5       C      0.202700000000     0.702700000000     0.500000000000     0          
C6       C      0.236200000000     0.736200000000     0.500000000000     0          
O1       O      0.435920000000     0.117520000000     0.500000000000     0          
C3       C      0.317900000000     0.125600000000     0.500000000000     0          
H1       H      0.310000000000     0.095200000000     0.500000000000     0          
C4       C      0.285000000000     0.158100000000     0.500000000000     0          
H2       H      0.254700000000     0.150000000000     0.500000000000     0          
O2       O      0.460170000000     0.039830000000     0.539830000000     0          
C1       C      0.396400000000     0.103600000000     0.500000000000     0          
C2       C      0.361900000000     0.138100000000     0.500000000000     0          
C5       C      0.297300000000     0.202700000000     0.500000000000     0          
C6       C      0.263800000000     0.236200000000     0.500000000000     0          
O1       O      0.882480000000     0.435920000000     0.500000000000     0          
C3       C      0.874400000000     0.317900000000     0.500000000000     0          
H1       H      0.904800000000     0.310000000000     0.500000000000     0          
C4       C      0.841900000000     0.285000000000     0.500000000000     0          
H2       H      0.850000000000     0.254700000000     0.500000000000     0          
O2       O      0.960170000000     0.460170000000     0.539830000000     0          
C1       C      0.896400000000     0.396400000000     0.500000000000     0          
C2       C      0.861900000000     0.361900000000     0.500000000000     0          
C5       C      0.797300000000     0.297300000000     0.500000000000     0          
C6       C      0.763800000000     0.263800000000     0.500000000000     0          
Zr1      Zr     0.500000000000     0.500000000000     0.081430000000     0          
O1       O      0.500000000000     0.564080000000     0.117520000000     0          
C3       C      0.500000000000     0.682100000000     0.125600000000     0          
H1       H      0.500000000000     0.690000000000     0.095200000000     0          
C4       C      0.500000000000     0.715000000000     0.158100000000     0          
H2       H      0.500000000000     0.745300000000     0.150000000000     0          
O2       O      0.460170000000     0.539830000000     0.039830000000     0          
C1       C      0.500000000000     0.603600000000     0.103600000000     0          
C2       C      0.500000000000     0.638100000000     0.138100000000     0          
C5       C      0.500000000000     0.702700000000     0.202700000000     0          
C6       C      0.500000000000     0.736200000000     0.236200000000     0          
O1       O      0.435920000000     0.500000000000     0.117520000000     0          
C3       C      0.317900000000     0.500000000000     0.125600000000     0          
H1       H      0.310000000000     0.500000000000     0.095200000000     0          
C4       C      0.285000000000     0.500000000000     0.158100000000     0          
H2       H      0.254700000000     0.500000000000     0.150000000000     0          
O2       O      0.460170000000     0.460170000000     0.039830000000     0          
C1       C      0.396400000000     0.500000000000     0.103600000000     0          
C2       C      0.361900000000     0.500000000000     0.138100000000     0          
C5       C      0.297300000000     0.500000000000     0.202700000000     0          
C6       C      0.263800000000     0.500000000000     0.236200000000     0          
O1       O      0.500000000000     0.435920000000     0.117520000000     0          
C3       C      0.500000000000     0.317900000000     0.125600000000     0          
H1       H      0.500000000000     0.310000000000     0.095200000000     0          
C4       C      0.500000000000     0.285000000000     0.158100000000     0          
H2       H      0.500000000000     0.254700000000     0.150000000000     0          
O2       O      0.539830000000     0.460170000000     0.039830000000     0          
C1       C      0.500000000000     0.396400000000     0.103600000000     0          
C2       C      0.500000000000     0.361900000000     0.138100000000     0          
C5       C      0.500000000000     0.297300000000     0.202700000000     0          
C6       C      0.500000000000     0.263800000000     0.236200000000     0          
O1       O      0.564080000000     0.500000000000     0.117520000000     0          
C3       C      0.682100000000     0.500000000000     0.125600000000     0          
H1       H      0.690000000000     0.500000000000     0.095200000000     0          
C4       C      0.715000000000     0.500000000000     0.158100000000     0          
H2       H      0.745300000000     0.500000000000     0.150000000000     0          
O2       O      0.539830000000     0.539830000000     0.039830000000     0          
C1       C      0.603600000000     0.500000000000     0.103600000000     0          
C2       C      0.638100000000     0.500000000000     0.138100000000     0          
C5       C      0.702700000000     0.500000000000     0.202700000000     0          
C6       C      0.736200000000     0.500000000000     0.236200000000     0          
Zr1      Zr     0.500000000000     0.500000000000     0.918570000000     0          
O1       O      0.500000000000     0.435920000000     0.882480000000     0          
C3       C      0.500000000000     0.317900000000     0.874400000000     0          
H1       H      0.500000000000     0.310000000000     0.904800000000     0          
C4       C      0.500000000000     0.285000000000     0.841900000000     0          
H2       H      0.500000000000     0.254700000000     0.850000000000     0          
O2       O      0.460170000000     0.460170000000     0.960170000000     0          
C1       C      0.500000000000     0.396400000000     0.896400000000     0          
C2       C      0.500000000000     0.361900000000     0.861900000000     0          
C5       C      0.500000000000     0.297300000000     0.797300000000     0          
C6       C      0.500000000000     0.263800000000     0.763800000000     0          
O1       O      0.564080000000     0.500000000000     0.882480000000     0          
C3       C      0.682100000000     0.500000000000     0.874400000000     0          
H1       H      0.690000000000     0.500000000000     0.904800000000     0          
C4       C      0.715000000000     0.500000000000     0.841900000000     0          
H2       H      0.745300000000     0.500000000000     0.850000000000     0          
O2       O      0.539830000000     0.460170000000     0.960170000000     0          
C1       C      0.603600000000     0.500000000000     0.896400000000     0          
C2       C      0.638100000000     0.500000000000     0.861900000000     0          
C5       C      0.702700000000     0.500000000000     0.797300000000     0          
C6       C      0.736200000000     0.500000000000     0.763800000000     0          
O1       O      0.500000000000     0.564080000000     0.882480000000     0          
C3       C      0.500000000000     0.682100000000     0.874400000000     0          
H1       H      0.500000000000     0.690000000000     0.904800000000     0          
C4       C      0.500000000000     0.715000000000     0.841900000000     0          
H2       H      0.500000000000     0.745300000000     0.850000000000     0          
O2       O      0.539830000000     0.539830000000     0.960170000000     0          
C1       C      0.500000000000     0.603600000000     0.896400000000     0          
C2       C      0.500000000000     0.638100000000     0.861900000000     0          
C5       C      0.500000000000     0.702700000000     0.797300000000     0          
C6       C      0.500000000000     0.736200000000     0.763800000000     0          
O1       O      0.435920000000     0.500000000000     0.882480000000     0          
C3       C      0.317900000000     0.500000000000     0.874400000000     0          
H1       H      0.310000000000     0.500000000000     0.904800000000     0          
C4       C      0.285000000000     0.500000000000     0.841900000000     0          
H2       H      0.254700000000     0.500000000000     0.850000000000     0          
O2       O      0.460170000000     0.539830000000     0.960170000000     0          
C1       C      0.396400000000     0.500000000000     0.896400000000     0          
C2       C      0.361900000000     0.500000000000     0.861900000000     0          
C5       C      0.297300000000     0.500000000000     0.797300000000     0          
C6       C      0.263800000000     0.500000000000     0.763800000000     0          
O1       O      0.117520000000     0.500000000000     0.564080000000     0          
C3       C      0.125600000000     0.500000000000     0.682100000000     0          
H1       H      0.095200000000     0.500000000000     0.690000000000     0          
C4       C      0.158100000000     0.500000000000     0.715000000000     0          
H2       H      0.150000000000     0.500000000000     0.745300000000     0          
O2       O      0.039830000000     0.460170000000     0.539830000000     0          
C1       C      0.103600000000     0.500000000000     0.603600000000     0          
C2       C      0.138100000000     0.500000000000     0.638100000000     0          
C5       C      0.202700000000     0.500000000000     0.702700000000     0          
C6       C      0.236200000000     0.500000000000     0.736200000000     0          
O1       O      0.117520000000     0.500000000000     0.435920000000     0          
C3       C      0.125600000000     0.500000000000     0.317900000000     0          
H1       H      0.095200000000     0.500000000000     0.310000000000     0          
C4       C      0.158100000000     0.500000000000     0.285000000000     0          
H2       H      0.150000000000     0.500000000000     0.254700000000     0          
O2       O      0.039830000000     0.539830000000     0.460170000000     0          
C1       C      0.103600000000     0.500000000000     0.396400000000     0          
C2       C      0.138100000000     0.500000000000     0.361900000000     0          
C5       C      0.202700000000     0.500000000000     0.297300000000     0          
C6       C      0.236200000000     0.500000000000     0.263800000000     0          
O1       O      0.500000000000     0.117520000000     0.435920000000     0          
C3       C      0.500000000000     0.125600000000     0.317900000000     0          
H1       H      0.500000000000     0.095200000000     0.310000000000     0          
C4       C      0.500000000000     0.158100000000     0.285000000000     0          
H2       H      0.500000000000     0.150000000000     0.254700000000     0          
O2       O      0.460170000000     0.039830000000     0.460170000000     0          
C1       C      0.500000000000     0.103600000000     0.396400000000     0          
C2       C      0.500000000000     0.138100000000     0.361900000000     0          
C5       C      0.500000000000     0.202700000000     0.297300000000     0          
C6       C      0.500000000000     0.236200000000     0.263800000000     0          
O1       O      0.882480000000     0.500000000000     0.435920000000     0          
C3       C      0.874400000000     0.500000000000     0.317900000000     0          
H1       H      0.904800000000     0.500000000000     0.310000000000     0          
C4       C      0.841900000000     0.500000000000     0.285000000000     0          
H2       H      0.850000000000     0.500000000000     0.254700000000     0          
O2       O      0.960170000000     0.460170000000     0.460170000000     0          
C1       C      0.896400000000     0.500000000000     0.396400000000     0          
C2       C      0.861900000000     0.500000000000     0.361900000000     0          
C5       C      0.797300000000     0.500000000000     0.297300000000     0          
C6       C      0.763800000000     0.500000000000     0.263800000000     0          
O1       O      0.500000000000     0.882480000000     0.435920000000     0          
C3       C      0.500000000000     0.874400000000     0.317900000000     0          
H1       H      0.500000000000     0.904800000000     0.310000000000     0          
C4       C      0.500000000000     0.841900000000     0.285000000000     0          
H2       H      0.500000000000     0.850000000000     0.254700000000     0          
O2       O      0.539830000000     0.960170000000     0.460170000000     0          
C1       C      0.500000000000     0.896400000000     0.396400000000     0          
C2       C      0.500000000000     0.861900000000     0.361900000000     0          
C5       C      0.500000000000     0.797300000000     0.297300000000     0          
C6       C      0.500000000000     0.763800000000     0.263800000000     0          
O1       O      0.882480000000     0.500000000000     0.564080000000     0          
C3       C      0.874400000000     0.500000000000     0.682100000000     0          
H1       H      0.904800000000     0.500000000000     0.690000000000     0          
C4       C      0.841900000000     0.500000000000     0.715000000000     0          
H2       H      0.850000000000     0.500000000000     0.745300000000     0          
O2       O      0.960170000000     0.539830000000     0.539830000000     0          
C1       C      0.896400000000     0.500000000000     0.603600000000     0          
C2       C      0.861900000000     0.500000000000     0.638100000000     0          
C5       C      0.797300000000     0.500000000000     0.702700000000     0          
C6       C      0.763800000000     0.500000000000     0.736200000000     0          
O1       O      0.500000000000     0.882480000000     0.564080000000     0          
C3       C      0.500000000000     0.874400000000     0.682100000000     0          
H1       H      0.500000000000     0.904800000000     0.690000000000     0          
C4       C      0.500000000000     0.841900000000     0.715000000000     0          
H2       H      0.500000000000     0.850000000000     0.745300000000     0          
O2       O      0.460170000000     0.960170000000     0.539830000000     0          
C1       C      0.500000000000     0.896400000000     0.603600000000     0          
C2       C      0.500000000000     0.861900000000     0.638100000000     0          
C5       C      0.500000000000     0.797300000000     0.702700000000     0          
C6       C      0.500000000000     0.763800000000     0.736200000000     0          
O1       O      0.500000000000     0.117520000000     0.564080000000     0          
C3       C      0.500000000000     0.125600000000     0.682100000000     0          
H1       H      0.500000000000     0.095200000000     0.690000000000     0          
C4       C      0.500000000000     0.158100000000     0.715000000000     0          
H2       H      0.500000000000     0.150000000000     0.745300000000     0          
O2       O      0.539830000000     0.039830000000     0.539830000000     0          
C1       C      0.500000000000     0.103600000000     0.603600000000     0          
C2       C      0.500000000000     0.138100000000     0.638100000000     0          
C5       C      0.500000000000     0.202700000000     0.702700000000     0          
C6       C      0.500000000000     0.236200000000     0.736200000000     0          
Zr1      Zr     0.500000000000     0.581430000000     0.000000000000     0          
O1       O      0.564080000000     0.617520000000     0.000000000000     0          
C3       C      0.682100000000     0.625600000000     0.000000000000     0          
H1       H      0.690000000000     0.595200000000     0.000000000000     0          
C4       C      0.715000000000     0.658100000000     0.000000000000     0          
H2       H      0.745300000000     0.650000000000     0.000000000000     0          
C1       C      0.603600000000     0.603600000000     0.000000000000     0          
C2       C      0.638100000000     0.638100000000     0.000000000000     0          
C5       C      0.702700000000     0.702700000000     0.000000000000     0          
C6       C      0.736200000000     0.736200000000     0.000000000000     0          
Zr1      Zr     0.918570000000     0.000000000000     0.000000000000     0          
O1       O      0.882480000000     0.064080000000     0.000000000000     0          
C3       C      0.874400000000     0.182100000000     0.000000000000     0          
H1       H      0.904800000000     0.190000000000     0.000000000000     0          
C4       C      0.841900000000     0.215000000000     0.000000000000     0          
H2       H      0.850000000000     0.245300000000     0.000000000000     0          
O2       O      0.960170000000     0.039830000000     0.960170000000     0          
C1       C      0.896400000000     0.103600000000     0.000000000000     0          
C2       C      0.861900000000     0.138100000000     0.000000000000     0          
C5       C      0.797300000000     0.202700000000     0.000000000000     0          
C6       C      0.763800000000     0.236200000000     0.000000000000     0          
Zr1      Zr     0.500000000000     0.418570000000     0.000000000000     0          
O1       O      0.435920000000     0.382480000000     0.000000000000     0          
C3       C      0.317900000000     0.374400000000     0.000000000000     0          
H1       H      0.310000000000     0.404800000000     0.000000000000     0          
C4       C      0.285000000000     0.341900000000     0.000000000000     0          
H2       H      0.254700000000     0.350000000000     0.000000000000     0          
C1       C      0.396400000000     0.396400000000     0.000000000000     0          
C2       C      0.361900000000     0.361900000000     0.000000000000     0          
C5       C      0.297300000000     0.297300000000     0.000000000000     0          
C6       C      0.263800000000     0.263800000000     0.000000000000     0          
Zr1      Zr     0.081430000000     0.000000000000     0.000000000000     0          
O1       O      0.117520000000     0.935920000000     0.000000000000     0          
C3       C      0.125600000000     0.817900000000     0.000000000000     0          
H1       H      0.095200000000     0.810000000000     0.000000000000     0          
C4       C      0.158100000000     0.785000000000     0.000000000000     0          
H2       H      0.150000000000     0.754700000000     0.000000000000     0          
O2       O      0.039830000000     0.960170000000     0.960170000000     0          
C1       C      0.103600000000     0.896400000000     0.000000000000     0          
C2       C      0.138100000000     0.861900000000     0.000000000000     0          
C5       C      0.202700000000     0.797300000000     0.000000000000     0          
C6       C      0.236200000000     0.763800000000     0.000000000000     0          
O1       O      0.564080000000     0.382480000000     0.000000000000     0          
C3       C      0.682100000000     0.374400000000     0.000000000000     0          
H1       H      0.690000000000     0.404800000000     0.000000000000     0          
C4       C      0.715000000000     0.341900000000     0.000000000000     0          
H2       H      0.745300000000     0.350000000000     0.000000000000     0          
C1       C      0.603600000000     0.396400000000     0.000000000000     0          
C2       C      0.638100000000     0.361900000000     0.000000000000     0          
C5       C      0.702700000000     0.297300000000     0.000000000000     0          
C6       C      0.736200000000     0.263800000000     0.000000000000     0          
O1       O      0.117520000000     0.064080000000     0.000000000000     0          
C3       C      0.125600000000     0.182100000000     0.000000000000     0          
H1       H      0.095200000000     0.190000000000     0.000000000000     0          
C4       C      0.158100000000     0.215000000000     0.000000000000     0          
H2       H      0.150000000000     0.245300000000     0.000000000000     0          
O2       O      0.039830000000     0.039830000000     0.039830000000     0          
C1       C      0.103600000000     0.103600000000     0.000000000000     0          
C2       C      0.138100000000     0.138100000000     0.000000000000     0          
C5       C      0.202700000000     0.202700000000     0.000000000000     0          
C6       C      0.236200000000     0.236200000000     0.000000000000     0          
O1       O      0.435920000000     0.617520000000     0.000000000000     0          
C3       C      0.317900000000     0.625600000000     0.000000000000     0          
H1       H      0.310000000000     0.595200000000     0.000000000000     0          
C4       C      0.285000000000     0.658100000000     0.000000000000     0          
H2       H      0.254700000000     0.650000000000     0.000000000000     0          
C1       C      0.396400000000     0.603600000000     0.000000000000     0          
C2       C      0.361900000000     0.638100000000     0.000000000000     0          
C5       C      0.297300000000     0.702700000000     0.000000000000     0          
C6       C      0.263800000000     0.736200000000     0.000000000000     0          
O1       O      0.882480000000     0.935920000000     0.000000000000     0          
C3       C      0.874400000000     0.817900000000     0.000000000000     0          
H1       H      0.904800000000     0.810000000000     0.000000000000     0          
C4       C      0.841900000000     0.785000000000     0.000000000000     0          
H2       H      0.850000000000     0.754700000000     0.000000000000     0          
O2       O      0.960170000000     0.960170000000     0.039830000000     0          
C1       C      0.896400000000     0.896400000000     0.000000000000     0          
C2       C      0.861900000000     0.861900000000     0.000000000000     0          
C5       C      0.797300000000     0.797300000000     0.000000000000     0          
C6       C      0.763800000000     0.763800000000     0.000000000000     0          
Zr1      Zr     0.500000000000     0.000000000000     0.581430000000     0          
O1       O      0.500000000000     0.064080000000     0.617520000000     0          
C3       C      0.500000000000     0.182100000000     0.625600000000     0          
H1       H      0.500000000000     0.190000000000     0.595200000000     0          
C4       C      0.500000000000     0.215000000000     0.658100000000     0          
H2       H      0.500000000000     0.245300000000     0.650000000000     0          
O1       O      0.435920000000     0.000000000000     0.617520000000     0          
C3       C      0.317900000000     0.000000000000     0.625600000000     0          
H1       H      0.310000000000     0.000000000000     0.595200000000     0          
C4       C      0.285000000000     0.000000000000     0.658100000000     0          
H2       H      0.254700000000     0.000000000000     0.650000000000     0          
C1       C      0.396400000000     0.000000000000     0.603600000000     0          
C2       C      0.361900000000     0.000000000000     0.638100000000     0          
C5       C      0.297300000000     0.000000000000     0.702700000000     0          
C6       C      0.263800000000     0.000000000000     0.736200000000     0          
O1       O      0.500000000000     0.935920000000     0.617520000000     0          
C3       C      0.500000000000     0.817900000000     0.625600000000     0          
H1       H      0.500000000000     0.810000000000     0.595200000000     0          
C4       C      0.500000000000     0.785000000000     0.658100000000     0          
H2       H      0.500000000000     0.754700000000     0.650000000000     0          
O1       O      0.564080000000     0.000000000000     0.617520000000     0          
C3       C      0.682100000000     0.000000000000     0.625600000000     0          
H1       H      0.690000000000     0.000000000000     0.595200000000     0          
C4       C      0.715000000000     0.000000000000     0.658100000000     0          
H2       H      0.745300000000     0.000000000000     0.650000000000     0          
C1       C      0.603600000000     0.000000000000     0.603600000000     0          
C2       C      0.638100000000     0.000000000000     0.638100000000     0          
C5       C      0.702700000000     0.000000000000     0.702700000000     0          
C6       C      0.736200000000     0.000000000000     0.736200000000     0          
Zr1      Zr     0.500000000000     0.000000000000     0.418570000000     0          
O1       O      0.500000000000     0.935920000000     0.382480000000     0          
C3       C      0.500000000000     0.817900000000     0.374400000000     0          
H1       H      0.500000000000     0.810000000000     0.404800000000     0          
C4       C      0.500000000000     0.785000000000     0.341900000000     0          
H2       H      0.500000000000     0.754700000000     0.350000000000     0          
O1       O      0.564080000000     0.000000000000     0.382480000000     0          
C3       C      0.682100000000     0.000000000000     0.374400000000     0          
H1       H      0.690000000000     0.000000000000     0.404800000000     0          
C4       C      0.715000000000     0.000000000000     0.341900000000     0          
H2       H      0.745300000000     0.000000000000     0.350000000000     0          
C1       C      0.603600000000     0.000000000000     0.396400000000     0          
C2       C      0.638100000000     0.000000000000     0.361900000000     0          
C5       C      0.702700000000     0.000000000000     0.297300000000     0          
C6       C      0.736200000000     0.000000000000     0.263800000000     0          
O1       O      0.500000000000     0.064080000000     0.382480000000     0          
C3       C      0.500000000000     0.182100000000     0.374400000000     0          
H1       H      0.500000000000     0.190000000000     0.404800000000     0          
C4       C      0.500000000000     0.215000000000     0.341900000000     0          
H2       H      0.500000000000     0.245300000000     0.350000000000     0          
O1       O      0.435920000000     0.000000000000     0.382480000000     0          
C3       C      0.317900000000     0.000000000000     0.374400000000     0          
H1       H      0.310000000000     0.000000000000     0.404800000000     0          
C4       C      0.285000000000     0.000000000000     0.341900000000     0          
H2       H      0.254700000000     0.000000000000     0.350000000000     0          
C1       C      0.396400000000     0.000000000000     0.396400000000     0          
C2       C      0.361900000000     0.000000000000     0.361900000000     0          
C5       C      0.297300000000     0.000000000000     0.297300000000     0          
C6       C      0.263800000000     0.000000000000     0.263800000000     0          
O1       O      0.117520000000     0.000000000000     0.064080000000     0          
C3       C      0.125600000000     0.000000000000     0.182100000000     0          
H1       H      0.095200000000     0.000000000000     0.190000000000     0          
C4       C      0.158100000000     0.000000000000     0.215000000000     0          
H2       H      0.150000000000     0.000000000000     0.245300000000     0          
O2       O      0.039830000000     0.960170000000     0.039830000000     0          
C1       C      0.103600000000     0.000000000000     0.103600000000     0          
C2       C      0.138100000000     0.000000000000     0.138100000000     0          
C5       C      0.202700000000     0.000000000000     0.202700000000     0          
C6       C      0.236200000000     0.000000000000     0.236200000000     0          
O1       O      0.117520000000     0.000000000000     0.935920000000     0          
C3       C      0.125600000000     0.000000000000     0.817900000000     0          
H1       H      0.095200000000     0.000000000000     0.810000000000     0          
C4       C      0.158100000000     0.000000000000     0.785000000000     0          
H2       H      0.150000000000     0.000000000000     0.754700000000     0          
O2       O      0.039830000000     0.039830000000     0.960170000000     0          
C1       C      0.103600000000     0.000000000000     0.896400000000     0          
C2       C      0.138100000000     0.000000000000     0.861900000000     0          
C5       C      0.202700000000     0.000000000000     0.797300000000     0          
C6       C      0.236200000000     0.000000000000     0.763800000000     0          
O1       O      0.500000000000     0.617520000000     0.935920000000     0          
C3       C      0.500000000000     0.625600000000     0.817900000000     0          
H1       H      0.500000000000     0.595200000000     0.810000000000     0          
C4       C      0.500000000000     0.658100000000     0.785000000000     0          
H2       H      0.500000000000     0.650000000000     0.754700000000     0          
O1       O      0.882480000000     0.000000000000     0.935920000000     0          
C3       C      0.874400000000     0.000000000000     0.817900000000     0          
H1       H      0.904800000000     0.000000000000     0.810000000000     0          
C4       C      0.841900000000     0.000000000000     0.785000000000     0          
H2       H      0.850000000000     0.000000000000     0.754700000000     0          
O2       O      0.960170000000     0.960170000000     0.960170000000     0          
C1       C      0.896400000000     0.000000000000     0.896400000000     0          
C2       C      0.861900000000     0.000000000000     0.861900000000     0          
C5       C      0.797300000000     0.000000000000     0.797300000000     0          
C6       C      0.763800000000     0.000000000000     0.763800000000     0          
O1       O      0.500000000000     0.382480000000     0.935920000000     0          
C3       C      0.500000000000     0.374400000000     0.817900000000     0          
H1       H      0.500000000000     0.404800000000     0.810000000000     0          
C4       C      0.500000000000     0.341900000000     0.785000000000     0          
H2       H      0.500000000000     0.350000000000     0.754700000000     0          
O1       O      0.882480000000     0.000000000000     0.064080000000     0          
C3       C      0.874400000000     0.000000000000     0.182100000000     0          
H1       H      0.904800000000     0.000000000000     0.190000000000     0          
C4       C      0.841900000000     0.000000000000     0.215000000000     0          
H2       H      0.850000000000     0.000000000000     0.245300000000     0          
O2       O      0.960170000000     0.039830000000     0.039830000000     0          
C1       C      0.896400000000     0.000000000000     0.103600000000     0          
C2       C      0.861900000000     0.000000000000     0.138100000000     0          
C5       C      0.797300000000     0.000000000000     0.202700000000     0          
C6       C      0.763800000000     0.000000000000     0.236200000000     0          
O1       O      0.500000000000     0.382480000000     0.064080000000     0          
C3       C      0.500000000000     0.374400000000     0.182100000000     0          
H1       H      0.500000000000     0.404800000000     0.190000000000     0          
C4       C      0.500000000000     0.341900000000     0.215000000000     0          
H2       H      0.500000000000     0.350000000000     0.245300000000     0          
O1       O      0.500000000000     0.617520000000     0.064080000000     0          
C3       C      0.500000000000     0.625600000000     0.182100000000     0          
H1       H      0.500000000000     0.595200000000     0.190000000000     0          
C4       C      0.500000000000     0.658100000000     0.215000000000     0          
H2       H      0.500000000000     0.650000000000     0.245300000000     0          
Zr1      Zr     0.000000000000     0.081430000000     0.000000000000     0          
O1       O      0.064080000000     0.117520000000     0.000000000000     0          
C3       C      0.182100000000     0.125600000000     0.000000000000     0          
H1       H      0.190000000000     0.095200000000     0.000000000000     0          
C4       C      0.215000000000     0.158100000000     0.000000000000     0          
H2       H      0.245300000000     0.150000000000     0.000000000000     0          
Zr1      Zr     0.418570000000     0.500000000000     0.000000000000     0          
O1       O      0.382480000000     0.564080000000     0.000000000000     0          
C3       C      0.374400000000     0.682100000000     0.000000000000     0          
H1       H      0.404800000000     0.690000000000     0.000000000000     0          
C4       C      0.341900000000     0.715000000000     0.000000000000     0          
H2       H      0.350000000000     0.745300000000     0.000000000000     0          
Zr1      Zr     0.000000000000     0.918570000000     0.000000000000     0          
O1       O      0.935920000000     0.882480000000     0.000000000000     0          
C3       C      0.817900000000     0.874400000000     0.000000000000     0          
H1       H      0.810000000000     0.904800000000     0.000000000000     0          
C4       C      0.785000000000     0.841900000000     0.000000000000     0          
H2       H      0.754700000000     0.850000000000     0.000000000000     0          
Zr1      Zr     0.581430000000     0.500000000000     0.000000000000     0          
O1       O      0.617520000000     0.435920000000     0.000000000000     0          
C3       C      0.625600000000     0.317900000000     0.000000000000     0          
H1       H      0.595200000000     0.310000000000     0.000000000000     0          
C4       C      0.658100000000     0.285000000000     0.000000000000     0          
H2       H      0.650000000000     0.254700000000     0.000000000000     0          
O1       O      0.064080000000     0.882480000000     0.000000000000     0          
C3       C      0.182100000000     0.874400000000     0.000000000000     0          
H1       H      0.190000000000     0.904800000000     0.000000000000     0          
C4       C      0.215000000000     0.841900000000     0.000000000000     0          
H2       H      0.245300000000     0.850000000000     0.000000000000     0          
O1       O      0.617520000000     0.564080000000     0.000000000000     0          
C3       C      0.625600000000     0.682100000000     0.000000000000     0          
H1       H      0.595200000000     0.690000000000     0.000000000000     0          
C4       C      0.658100000000     0.715000000000     0.000000000000     0          
H2       H      0.650000000000     0.745300000000     0.000000000000     0          
O1       O      0.935920000000     0.117520000000     0.000000000000     0          
C3       C      0.817900000000     0.125600000000     0.000000000000     0          
H1       H      0.810000000000     0.095200000000     0.000000000000     0          
C4       C      0.785000000000     0.158100000000     0.000000000000     0          
H2       H      0.754700000000     0.150000000000     0.000000000000     0          
O1       O      0.382480000000     0.435920000000     0.000000000000     0          
C3       C      0.374400000000     0.317900000000     0.000000000000     0          
H1       H      0.404800000000     0.310000000000     0.000000000000     0          
C4       C      0.341900000000     0.285000000000     0.000000000000     0          
H2       H      0.350000000000     0.254700000000     0.000000000000     0          
Zr1      Zr     0.000000000000     0.500000000000     0.581430000000     0          
O1       O      0.000000000000     0.564080000000     0.617520000000     0          
C3       C      0.000000000000     0.682100000000     0.625600000000     0          
H1       H      0.000000000000     0.690000000000     0.595200000000     0          
C4       C      0.000000000000     0.715000000000     0.658100000000     0          
H2       H      0.000000000000     0.745300000000     0.650000000000     0          
C1       C      0.000000000000     0.603600000000     0.603600000000     0          
C2       C      0.000000000000     0.638100000000     0.638100000000     0          
C5       C      0.000000000000     0.702700000000     0.702700000000     0          
C6       C      0.000000000000     0.736200000000     0.736200000000     0          
O1       O      0.935920000000     0.500000000000     0.617520000000     0          
C3       C      0.817900000000     0.500000000000     0.625600000000     0          
H1       H      0.810000000000     0.500000000000     0.595200000000     0          
C4       C      0.785000000000     0.500000000000     0.658100000000     0          
H2       H      0.754700000000     0.500000000000     0.650000000000     0          
O1       O      0.000000000000     0.435920000000     0.617520000000     0          
C3       C      0.000000000000     0.317900000000     0.625600000000     0          
H1       H      0.000000000000     0.310000000000     0.595200000000     0          
C4       C      0.000000000000     0.285000000000     0.658100000000     0          
H2       H      0.000000000000     0.254700000000     0.650000000000     0          
C1       C      0.000000000000     0.396400000000     0.603600000000     0          
C2       C      0.000000000000     0.361900000000     0.638100000000     0          
C5       C      0.000000000000     0.297300000000     0.702700000000     0          
C6       C      0.000000000000     0.263800000000     0.736200000000     0          
O1       O      0.064080000000     0.500000000000     0.617520000000     0          
C3       C      0.182100000000     0.500000000000     0.625600000000     0          
H1       H      0.190000000000     0.500000000000     0.595200000000     0          
C4       C      0.215000000000     0.500000000000     0.658100000000     0          
H2       H      0.245300000000     0.500000000000     0.650000000000     0          
Zr1      Zr     0.000000000000     0.500000000000     0.418570000000     0          
O1       O      0.000000000000     0.435920000000     0.382480000000     0          
C3       C      0.000000000000     0.317900000000     0.374400000000     0          
H1       H      0.000000000000     0.310000000000     0.404800000000     0          
C4       C      0.000000000000     0.285000000000     0.341900000000     0          
H2       H      0.000000000000     0.254700000000     0.350000000000     0          
C1       C      0.000000000000     0.396400000000     0.396400000000     0          
C2       C      0.000000000000     0.361900000000     0.361900000000     0          
C5       C      0.000000000000     0.297300000000     0.297300000000     0          
C6       C      0.000000000000     0.263800000000     0.263800000000     0          
O1       O      0.064080000000     0.500000000000     0.382480000000     0          
C3       C      0.182100000000     0.500000000000     0.374400000000     0          
H1       H      0.190000000000     0.500000000000     0.404800000000     0          
C4       C      0.215000000000     0.500000000000     0.341900000000     0          
H2       H      0.245300000000     0.500000000000     0.350000000000     0          
O1       O      0.000000000000     0.564080000000     0.382480000000     0          
C3       C      0.000000000000     0.682100000000     0.374400000000     0          
H1       H      0.000000000000     0.690000000000     0.404800000000     0          
C4       C      0.000000000000     0.715000000000     0.341900000000     0          
H2       H      0.000000000000     0.745300000000     0.350000000000     0          
C1       C      0.000000000000     0.603600000000     0.396400000000     0          
C2       C      0.000000000000     0.638100000000     0.361900000000     0          
C5       C      0.000000000000     0.702700000000     0.297300000000     0          
C6       C      0.000000000000     0.736200000000     0.263800000000     0          
O1       O      0.935920000000     0.500000000000     0.382480000000     0          
C3       C      0.817900000000     0.500000000000     0.374400000000     0          
H1       H      0.810000000000     0.500000000000     0.404800000000     0          
C4       C      0.785000000000     0.500000000000     0.341900000000     0          
H2       H      0.754700000000     0.500000000000     0.350000000000     0          
O1       O      0.617520000000     0.500000000000     0.064080000000     0          
C3       C      0.625600000000     0.500000000000     0.182100000000     0          
H1       H      0.595200000000     0.500000000000     0.190000000000     0          
C4       C      0.658100000000     0.500000000000     0.215000000000     0          
H2       H      0.650000000000     0.500000000000     0.245300000000     0          
O1       O      0.617520000000     0.500000000000     0.935920000000     0          
C3       C      0.625600000000     0.500000000000     0.817900000000     0          
H1       H      0.595200000000     0.500000000000     0.810000000000     0          
C4       C      0.658100000000     0.500000000000     0.785000000000     0          
H2       H      0.650000000000     0.500000000000     0.754700000000     0          
O1       O      0.000000000000     0.117520000000     0.935920000000     0          
C3       C      0.000000000000     0.125600000000     0.817900000000     0          
H1       H      0.000000000000     0.095200000000     0.810000000000     0          
C4       C      0.000000000000     0.158100000000     0.785000000000     0          
H2       H      0.000000000000     0.150000000000     0.754700000000     0          
C1       C      0.000000000000     0.103600000000     0.896400000000     0          
C2       C      0.000000000000     0.138100000000     0.861900000000     0          
C5       C      0.000000000000     0.202700000000     0.797300000000     0          
C6       C      0.000000000000     0.236200000000     0.763800000000     0          
O1       O      0.382480000000     0.500000000000     0.935920000000     0          
C3       C      0.374400000000     0.500000000000     0.817900000000     0          
H1       H      0.404800000000     0.500000000000     0.810000000000     0          
C4       C      0.341900000000     0.500000000000     0.785000000000     0          
H2       H      0.350000000000     0.500000000000     0.754700000000     0          
O1       O      0.000000000000     0.882480000000     0.935920000000     0          
C3       C      0.000000000000     0.874400000000     0.817900000000     0          
H1       H      0.000000000000     0.904800000000     0.810000000000     0          
C4       C      0.000000000000     0.841900000000     0.785000000000     0          
H2       H      0.000000000000     0.850000000000     0.754700000000     0          
C1       C      0.000000000000     0.896400000000     0.896400000000     0          
C2       C      0.000000000000     0.861900000000     0.861900000000     0          
C5       C      0.000000000000     0.797300000000     0.797300000000     0          
C6       C      0.000000000000     0.763800000000     0.763800000000     0          
O1       O      0.382480000000     0.500000000000     0.064080000000     0          
C3       C      0.374400000000     0.500000000000     0.182100000000     0          
H1       H      0.404800000000     0.500000000000     0.190000000000     0          
C4       C      0.341900000000     0.500000000000     0.215000000000     0          
H2       H      0.350000000000     0.500000000000     0.245300000000     0          
O1       O      0.000000000000     0.882480000000     0.064080000000     0          
C3       C      0.000000000000     0.874400000000     0.182100000000     0          
H1       H      0.000000000000     0.904800000000     0.190000000000     0          
C4       C      0.000000000000     0.841900000000     0.215000000000     0          
H2       H      0.000000000000     0.850000000000     0.245300000000     0          
C1       C      0.000000000000     0.896400000000     0.103600000000     0          
C2       C      0.000000000000     0.861900000000     0.138100000000     0          
C5       C      0.000000000000     0.797300000000     0.202700000000     0          
C6       C      0.000000000000     0.763800000000     0.236200000000     0          
O1       O      0.000000000000     0.117520000000     0.064080000000     0          
C3       C      0.000000000000     0.125600000000     0.182100000000     0          
H1       H      0.000000000000     0.095200000000     0.190000000000     0          
C4       C      0.000000000000     0.158100000000     0.215000000000     0          
H2       H      0.000000000000     0.150000000000     0.245300000000     0          
C1       C      0.000000000000     0.103600000000     0.103600000000     0          
C2       C      0.000000000000     0.138100000000     0.138100000000     0          
C5       C      0.000000000000     0.202700000000     0.202700000000     0          
C6       C      0.000000000000     0.236200000000     0.236200000000     0          
Zr1      Zr     0.000000000000     0.581430000000     0.500000000000     0          
O1       O      0.064080000000     0.617520000000     0.500000000000     0          
C3       C      0.182100000000     0.625600000000     0.500000000000     0          
H1       H      0.190000000000     0.595200000000     0.500000000000     0          
C4       C      0.215000000000     0.658100000000     0.500000000000     0          
H2       H      0.245300000000     0.650000000000     0.500000000000     0          
Zr1      Zr     0.418570000000     0.000000000000     0.500000000000     0          
O1       O      0.382480000000     0.064080000000     0.500000000000     0          
C3       C      0.374400000000     0.182100000000     0.500000000000     0          
H1       H      0.404800000000     0.190000000000     0.500000000000     0          
C4       C      0.341900000000     0.215000000000     0.500000000000     0          
H2       H      0.350000000000     0.245300000000     0.500000000000     0          
Zr1      Zr     0.000000000000     0.418570000000     0.500000000000     0          
O1       O      0.935920000000     0.382480000000     0.500000000000     0          
C3       C      0.817900000000     0.374400000000     0.500000000000     0          
H1       H      0.810000000000     0.404800000000     0.500000000000     0          
C4       C      0.785000000000     0.341900000000     0.500000000000     0          
H2       H      0.754700000000     0.350000000000     0.500000000000     0          
Zr1      Zr     0.581430000000     0.000000000000     0.500000000000     0          
O1       O      0.617520000000     0.935920000000     0.500000000000     0          
C3       C      0.625600000000     0.817900000000     0.500000000000     0          
H1       H      0.595200000000     0.810000000000     0.500000000000     0          
C4       C      0.658100000000     0.785000000000     0.500000000000     0          
H2       H      0.650000000000     0.754700000000     0.500000000000     0          
O1       O      0.064080000000     0.382480000000     0.500000000000     0          
C3       C      0.182100000000     0.374400000000     0.500000000000     0          
H1       H      0.190000000000     0.404800000000     0.500000000000     0          
C4       C      0.215000000000     0.341900000000     0.500000000000     0          
H2       H      0.245300000000     0.350000000000     0.500000000000     0          
O1       O      0.617520000000     0.064080000000     0.500000000000     0          
C3       C      0.625600000000     0.182100000000     0.500000000000     0          
H1       H      0.595200000000     0.190000000000     0.500000000000     0          
C4       C      0.658100000000     0.215000000000     0.500000000000     0          
H2       H      0.650000000000     0.245300000000     0.500000000000     0          
O1       O      0.935920000000     0.617520000000     0.500000000000     0          
C3       C      0.817900000000     0.625600000000     0.500000000000     0          
H1       H      0.810000000000     0.595200000000     0.500000000000     0          
C4       C      0.785000000000     0.658100000000     0.500000000000     0          
H2       H      0.754700000000     0.650000000000     0.500000000000     0          
O1       O      0.382480000000     0.935920000000     0.500000000000     0          
C3       C      0.374400000000     0.817900000000     0.500000000000     0          
H1       H      0.404800000000     0.810000000000     0.500000000000     0          
C4       C      0.341900000000     0.785000000000     0.500000000000     0          
H2       H      0.350000000000     0.754700000000     0.500000000000     0          
Zr1      Zr     0.000000000000     0.000000000000     0.081430000000     0          
O1       O      0.000000000000     0.064080000000     0.117520000000     0          
C3       C      0.000000000000     0.182100000000     0.125600000000     0          
H1       H      0.000000000000     0.190000000000     0.095200000000     0          
C4       C      0.000000000000     0.215000000000     0.158100000000     0          
H2       H      0.000000000000     0.245300000000     0.150000000000     0          
O1       O      0.935920000000     0.000000000000     0.117520000000     0          
C3       C      0.817900000000     0.000000000000     0.125600000000     0          
H1       H      0.810000000000     0.000000000000     0.095200000000     0          
C4       C      0.785000000000     0.000000000000     0.158100000000     0          
H2       H      0.754700000000     0.000000000000     0.150000000000     0          
O1       O      0.000000000000     0.935920000000     0.117520000000     0          
C3       C      0.000000000000     0.817900000000     0.125600000000     0          
H1       H      0.000000000000     0.810000000000     0.095200000000     0          
C4       C      0.000000000000     0.785000000000     0.158100000000     0          
H2       H      0.000000000000     0.754700000000     0.150000000000     0          
O1       O      0.064080000000     0.000000000000     0.117520000000     0          
C3       C      0.182100000000     0.000000000000     0.125600000000     0          
H1       H      0.190000000000     0.000000000000     0.095200000000     0          
C4       C      0.215000000000     0.000000000000     0.158100000000     0          
H2       H      0.245300000000     0.000000000000     0.150000000000     0          
Zr1      Zr     0.000000000000     0.000000000000     0.918570000000     0          
O1       O      0.000000000000     0.935920000000     0.882480000000     0          
C3       C      0.000000000000     0.817900000000     0.874400000000     0          
H1       H      0.000000000000     0.810000000000     0.904800000000     0          
C4       C      0.000000000000     0.785000000000     0.841900000000     0          
H2       H      0.000000000000     0.754700000000     0.850000000000     0          
O1       O      0.064080000000     0.000000000000     0.882480000000     0          
C3       C      0.182100000000     0.000000000000     0.874400000000     0          
H1       H      0.190000000000     0.000000000000     0.904800000000     0          
C4       C      0.215000000000     0.000000000000     0.841900000000     0          
H2       H      0.245300000000     0.000000000000     0.850000000000     0          
O1       O      0.000000000000     0.064080000000     0.882480000000     0          
C3       C      0.000000000000     0.182100000000     0.874400000000     0          
H1       H      0.000000000000     0.190000000000     0.904800000000     0          
C4       C      0.000000000000     0.215000000000     0.841900000000     0          
H2       H      0.000000000000     0.245300000000     0.850000000000     0          
O1       O      0.935920000000     0.000000000000     0.882480000000     0          
C3       C      0.817900000000     0.000000000000     0.874400000000     0          
H1       H      0.810000000000     0.000000000000     0.904800000000     0          
C4       C      0.785000000000     0.000000000000     0.841900000000     0          
H2       H      0.754700000000     0.000000000000     0.850000000000     0          
O1       O      0.617520000000     0.000000000000     0.564080000000     0          
C3       C      0.625600000000     0.000000000000     0.682100000000     0          
H1       H      0.595200000000     0.000000000000     0.690000000000     0          
C4       C      0.658100000000     0.000000000000     0.715000000000     0          
H2       H      0.650000000000     0.000000000000     0.745300000000     0          
O1       O      0.617520000000     0.000000000000     0.435920000000     0          
C3       C      0.625600000000     0.000000000000     0.317900000000     0          
H1       H      0.595200000000     0.000000000000     0.310000000000     0          
C4       C      0.658100000000     0.000000000000     0.285000000000     0          
H2       H      0.650000000000     0.000000000000     0.254700000000     0          
O1       O      0.000000000000     0.617520000000     0.435920000000     0          
C3       C      0.000000000000     0.625600000000     0.317900000000     0          
H1       H      0.000000000000     0.595200000000     0.310000000000     0          
C4       C      0.000000000000     0.658100000000     0.285000000000     0          
H2       H      0.000000000000     0.650000000000     0.254700000000     0          
O1       O      0.382480000000     0.000000000000     0.435920000000     0          
C3       C      0.374400000000     0.000000000000     0.317900000000     0          
H1       H      0.404800000000     0.000000000000     0.310000000000     0          
C4       C      0.341900000000     0.000000000000     0.285000000000     0          
H2       H      0.350000000000     0.000000000000     0.254700000000     0          
O1       O      0.000000000000     0.382480000000     0.435920000000     0          
C3       C      0.000000000000     0.374400000000     0.317900000000     0          
H1       H      0.000000000000     0.404800000000     0.310000000000     0          
C4       C      0.000000000000     0.341900000000     0.285000000000     0          
H2       H      0.000000000000     0.350000000000     0.254700000000     0          
O1       O      0.382480000000     0.000000000000     0.564080000000     0          
C3       C      0.374400000000     0.000000000000     0.682100000000     0          
H1       H      0.404800000000     0.000000000000     0.690000000000     0          
C4       C      0.341900000000     0.000000000000     0.715000000000     0          
H2       H      0.350000000000     0.000000000000     0.745300000000     0          
O1       O      0.000000000000     0.382480000000     0.564080000000     0          
C3       C      0.000000000000     0.374400000000     0.682100000000     0          
H1       H      0.000000000000     0.404800000000     0.690000000000     0          
C4       C      0.000000000000     0.341900000000     0.715000000000     0          
H2       H      0.000000000000     0.350000000000     0.745300000000     0          
O1       O      0.000000000000     0.617520000000     0.564080000000     0          
C3       C      0.000000000000     0.625600000000     0.682100000000     0          
H1       H      0.000000000000     0.595200000000     0.690000000000     0          
C4       C      0.000000000000     0.658100000000     0.715000000000     0          
H2       H      0.000000000000     0.650000000000     0.745300000000     0          


