data_SELKOM

_audit_creation_method RASPA-1.0
_audit_creation_date 2020-11-2
_audit_author_name 'Rocio Bueno-Perez'

_cell_length_a    34.3258
_cell_length_b    34.3258
_cell_length_c    14.7063
_cell_angle_alpha 90
_cell_angle_beta  90
_cell_angle_gamma 90
_cell_volume      17327.9

_symmetry_cell_setting          tetragonal
_symmetry_space_group_name_Hall 'P 1'
_symmetry_space_group_name_H-M  'P 1'
_symmetry_Int_Tables_number     1

_symmetry_equiv_pos_as_xyz 'x,y,z'

loop_
_atom_site_label
_atom_site_type_symbol
_atom_site_fract_x
_atom_site_fract_y
_atom_site_fract_z
_atom_site_charge
O1       O      0.969360000000     0.480000000000     0.617500000000     0          
O2       O      0.011920000000     0.438600000000     0.518700000000     0          
O3       O      0.903000000000     0.449720000000     0.396900000000     0          
O4       O      0.957710000000     0.395000000000     0.424600000000     0          
C1       C      0.893600000000     0.474100000000     0.339100000000     0          
O7       O      0.001970000000     0.415610000000     0.691200000000     0          
O10      O      0.983400000000     0.599700000000     0.642000000000     0          
C2       C      0.853900000000     0.472900000000     0.299200000000     0          
C4       C      0.826500000000     0.448400000000     0.337200000000     0          
C5       C      0.843200000000     0.497800000000     0.226400000000     0          
H1       H      0.833800000000     0.431000000000     0.384500000000     0          
C7       C      0.788600000000     0.449200000000     0.306600000000     0          
C8       C      0.805700000000     0.497400000000     0.195700000000     0          
H2       H      0.861900000000     0.514500000000     0.199300000000     0          
C10      C      0.777400000000     0.474800000000     0.236200000000     0          
C11      C      0.757800000000     0.428000000000     0.370300000000     0          
H4       H      0.798900000000     0.513100000000     0.145000000000     0          
C12      C      0.735800000000     0.476300000000     0.205400000000     0          
H6       H      0.731800000000     0.430100000000     0.343200000000     0          
H7       H      0.757800000000     0.440400000000     0.430300000000     0          
H8       H      0.764900000000     0.400500000000     0.376600000000     0          
C13      C      0.721200000000     0.449000000000     0.147800000000     0          
C14      C      0.714100000000     0.507600000000     0.235300000000     0          
C15      C      0.682000000000     0.452100000000     0.119500000000     0          
C16      C      0.744500000000     0.416800000000     0.104100000000     0          
C17      C      0.675100000000     0.509800000000     0.207700000000     0          
H9       H      0.725200000000     0.527000000000     0.273400000000     0          
H10      H      0.671400000000     0.433600000000     0.078300000000     0          
C18      C      0.659300000000     0.482000000000     0.151900000000     0          
H11      H      0.727300000000     0.401000000000     0.065500000000     0          
H12      H      0.755900000000     0.400300000000     0.151400000000     0          
H13      H      0.765300000000     0.428100000000     0.066900000000     0          
H14      H      0.659400000000     0.530900000000     0.227800000000     0          
C19      C      0.617700000000     0.486200000000     0.122400000000     0          
Zr1      Zr     0.949330000000     0.449330000000     0.500000000000     0          
Zr2      Zr     0.030250000000     0.469750000000     0.636710000000     0          
Zr3      Zr     0.958730000000     0.541270000000     0.600630000000     0          
O6       O      0.016800000000     0.483200000000     0.773900000000     0          
O9       O      0.960000000000     0.540000000000     0.748700000000     0          
C3       C      0.988500000000     0.511500000000     0.793700000000     0          
C6       C      0.981000000000     0.519000000000     0.893500000000     0          
H3       H      0.962400000000     0.537600000000     0.913300000000     0          
C9       C      0.003200000000     0.496800000000     0.956100000000     0          
H5       H      0.021900000000     0.478100000000     0.936300000000     0          
O1       O      0.020000000000     0.969360000000     0.117500000000     0          
O2       O      0.061400000000     0.011920000000     0.018700000000     0          
O3       O      0.050280000000     0.903000000000     0.896900000000     0          
O4       O      0.105000000000     0.957710000000     0.924600000000     0          
C1       C      0.025900000000     0.893600000000     0.839100000000     0          
O7       O      0.084390000000     0.001970000000     0.191200000000     0          
O10      O      0.900300000000     0.983400000000     0.142000000000     0          
C2       C      0.027100000000     0.853900000000     0.799200000000     0          
C4       C      0.051600000000     0.826500000000     0.837200000000     0          
C5       C      0.002200000000     0.843200000000     0.726400000000     0          
H1       H      0.069000000000     0.833800000000     0.884500000000     0          
C7       C      0.050800000000     0.788600000000     0.806600000000     0          
C8       C      0.002600000000     0.805700000000     0.695700000000     0          
H2       H      0.985500000000     0.861900000000     0.699300000000     0          
C10      C      0.025200000000     0.777400000000     0.736200000000     0          
C11      C      0.072000000000     0.757800000000     0.870300000000     0          
H4       H      0.986900000000     0.798900000000     0.645000000000     0          
C12      C      0.023700000000     0.735800000000     0.705400000000     0          
H6       H      0.069900000000     0.731800000000     0.843200000000     0          
H7       H      0.059600000000     0.757800000000     0.930300000000     0          
H8       H      0.099500000000     0.764900000000     0.876600000000     0          
C13      C      0.051000000000     0.721200000000     0.647800000000     0          
C14      C      0.992400000000     0.714100000000     0.735300000000     0          
C15      C      0.047900000000     0.682000000000     0.619500000000     0          
C16      C      0.083200000000     0.744500000000     0.604100000000     0          
C17      C      0.990200000000     0.675100000000     0.707700000000     0          
H9       H      0.973000000000     0.725200000000     0.773400000000     0          
H10      H      0.066400000000     0.671400000000     0.578300000000     0          
C18      C      0.018000000000     0.659300000000     0.651900000000     0          
H11      H      0.099000000000     0.727300000000     0.565500000000     0          
H12      H      0.099700000000     0.755900000000     0.651400000000     0          
H13      H      0.071900000000     0.765300000000     0.566900000000     0          
H14      H      0.969100000000     0.659400000000     0.727800000000     0          
C19      C      0.013800000000     0.617700000000     0.622400000000     0          
Zr1      Zr     0.050670000000     0.949330000000     0.000000000000     0          
Zr2      Zr     0.030250000000     0.030250000000     0.136710000000     0          
Zr3      Zr     0.958730000000     0.958730000000     0.100630000000     0          
O6       O      0.016800000000     0.016800000000     0.273900000000     0          
O9       O      0.960000000000     0.960000000000     0.248700000000     0          
C3       C      0.988500000000     0.988500000000     0.293700000000     0          
C6       C      0.981000000000     0.981000000000     0.393500000000     0          
H3       H      0.962400000000     0.962400000000     0.413300000000     0          
C9       C      0.003200000000     0.003200000000     0.456100000000     0          
H5       H      0.021900000000     0.021900000000     0.436300000000     0          
O1       O      0.530640000000     0.020000000000     0.617500000000     0          
O2       O      0.488080000000     0.061400000000     0.518700000000     0          
O3       O      0.597000000000     0.050280000000     0.396900000000     0          
O4       O      0.542290000000     0.105000000000     0.424600000000     0          
C1       C      0.606400000000     0.025900000000     0.339100000000     0          
O7       O      0.498030000000     0.084390000000     0.691200000000     0          
O10      O      0.516600000000     0.900300000000     0.642000000000     0          
C2       C      0.646100000000     0.027100000000     0.299200000000     0          
C4       C      0.673500000000     0.051600000000     0.337200000000     0          
C5       C      0.656800000000     0.002200000000     0.226400000000     0          
H1       H      0.666200000000     0.069000000000     0.384500000000     0          
C7       C      0.711400000000     0.050800000000     0.306600000000     0          
C8       C      0.694300000000     0.002600000000     0.195700000000     0          
H2       H      0.638100000000     0.985500000000     0.199300000000     0          
C10      C      0.722600000000     0.025200000000     0.236200000000     0          
C11      C      0.742200000000     0.072000000000     0.370300000000     0          
H4       H      0.701100000000     0.986900000000     0.145000000000     0          
C12      C      0.764200000000     0.023700000000     0.205400000000     0          
H6       H      0.768200000000     0.069900000000     0.343200000000     0          
H7       H      0.742200000000     0.059600000000     0.430300000000     0          
H8       H      0.735100000000     0.099500000000     0.376600000000     0          
C13      C      0.778800000000     0.051000000000     0.147800000000     0          
C14      C      0.785900000000     0.992400000000     0.235300000000     0          
C15      C      0.818000000000     0.047900000000     0.119500000000     0          
C16      C      0.755500000000     0.083200000000     0.104100000000     0          
C17      C      0.824900000000     0.990200000000     0.207700000000     0          
H9       H      0.774800000000     0.973000000000     0.273400000000     0          
H10      H      0.828600000000     0.066400000000     0.078300000000     0          
C18      C      0.840700000000     0.018000000000     0.151900000000     0          
H11      H      0.772700000000     0.099000000000     0.065500000000     0          
H12      H      0.744100000000     0.099700000000     0.151400000000     0          
H13      H      0.734700000000     0.071900000000     0.066900000000     0          
H14      H      0.840600000000     0.969100000000     0.227800000000     0          
C19      C      0.882300000000     0.013800000000     0.122400000000     0          
Zr1      Zr     0.550670000000     0.050670000000     0.500000000000     0          
Zr2      Zr     0.469750000000     0.030250000000     0.636710000000     0          
Zr3      Zr     0.541270000000     0.958730000000     0.600630000000     0          
O6       O      0.483200000000     0.016800000000     0.773900000000     0          
O9       O      0.540000000000     0.960000000000     0.748700000000     0          
C3       C      0.511500000000     0.988500000000     0.793700000000     0          
C6       C      0.519000000000     0.981000000000     0.893500000000     0          
H3       H      0.537600000000     0.962400000000     0.913300000000     0          
C9       C      0.496800000000     0.003200000000     0.956100000000     0          
H5       H      0.478100000000     0.021900000000     0.936300000000     0          
O1       O      0.480000000000     0.530640000000     0.117500000000     0          
O2       O      0.438600000000     0.488080000000     0.018700000000     0          
O3       O      0.449720000000     0.597000000000     0.896900000000     0          
O4       O      0.395000000000     0.542290000000     0.924600000000     0          
C1       C      0.474100000000     0.606400000000     0.839100000000     0          
O7       O      0.415610000000     0.498030000000     0.191200000000     0          
O10      O      0.599700000000     0.516600000000     0.142000000000     0          
C2       C      0.472900000000     0.646100000000     0.799200000000     0          
C4       C      0.448400000000     0.673500000000     0.837200000000     0          
C5       C      0.497800000000     0.656800000000     0.726400000000     0          
H1       H      0.431000000000     0.666200000000     0.884500000000     0          
C7       C      0.449200000000     0.711400000000     0.806600000000     0          
C8       C      0.497400000000     0.694300000000     0.695700000000     0          
H2       H      0.514500000000     0.638100000000     0.699300000000     0          
C10      C      0.474800000000     0.722600000000     0.736200000000     0          
C11      C      0.428000000000     0.742200000000     0.870300000000     0          
H4       H      0.513100000000     0.701100000000     0.645000000000     0          
C12      C      0.476300000000     0.764200000000     0.705400000000     0          
H6       H      0.430100000000     0.768200000000     0.843200000000     0          
H7       H      0.440400000000     0.742200000000     0.930300000000     0          
H8       H      0.400500000000     0.735100000000     0.876600000000     0          
C13      C      0.449000000000     0.778800000000     0.647800000000     0          
C14      C      0.507600000000     0.785900000000     0.735300000000     0          
C15      C      0.452100000000     0.818000000000     0.619500000000     0          
C16      C      0.416800000000     0.755500000000     0.604100000000     0          
C17      C      0.509800000000     0.824900000000     0.707700000000     0          
H9       H      0.527000000000     0.774800000000     0.773400000000     0          
H10      H      0.433600000000     0.828600000000     0.578300000000     0          
C18      C      0.482000000000     0.840700000000     0.651900000000     0          
H11      H      0.401000000000     0.772700000000     0.565500000000     0          
H12      H      0.400300000000     0.744100000000     0.651400000000     0          
H13      H      0.428100000000     0.734700000000     0.566900000000     0          
H14      H      0.530900000000     0.840600000000     0.727800000000     0          
C19      C      0.486200000000     0.882300000000     0.622400000000     0          
Zr1      Zr     0.449330000000     0.550670000000     0.000000000000     0          
Zr2      Zr     0.469750000000     0.469750000000     0.136710000000     0          
Zr3      Zr     0.541270000000     0.541270000000     0.100630000000     0          
O6       O      0.483200000000     0.483200000000     0.273900000000     0          
O9       O      0.540000000000     0.540000000000     0.248700000000     0          
C3       C      0.511500000000     0.511500000000     0.293700000000     0          
C6       C      0.519000000000     0.519000000000     0.393500000000     0          
H3       H      0.537600000000     0.537600000000     0.413300000000     0          
C9       C      0.496800000000     0.496800000000     0.456100000000     0          
H5       H      0.478100000000     0.478100000000     0.436300000000     0          
O1       O      0.469360000000     0.520000000000     0.882500000000     0          
O2       O      0.511920000000     0.561400000000     0.981300000000     0          
O3       O      0.403000000000     0.550280000000     0.103100000000     0          
O4       O      0.457710000000     0.605000000000     0.075400000000     0          
C1       C      0.393600000000     0.525900000000     0.160900000000     0          
O7       O      0.501970000000     0.584390000000     0.808800000000     0          
O10      O      0.483400000000     0.400300000000     0.858000000000     0          
C2       C      0.353900000000     0.527100000000     0.200800000000     0          
C4       C      0.326500000000     0.551600000000     0.162800000000     0          
C5       C      0.343200000000     0.502200000000     0.273600000000     0          
H1       H      0.333800000000     0.569000000000     0.115500000000     0          
C7       C      0.288600000000     0.550800000000     0.193400000000     0          
C8       C      0.305700000000     0.502600000000     0.304300000000     0          
H2       H      0.361900000000     0.485500000000     0.300700000000     0          
C10      C      0.277400000000     0.525200000000     0.263800000000     0          
C11      C      0.257800000000     0.572000000000     0.129700000000     0          
H4       H      0.298900000000     0.486900000000     0.355000000000     0          
C12      C      0.235800000000     0.523700000000     0.294600000000     0          
H6       H      0.231800000000     0.569900000000     0.156800000000     0          
H7       H      0.257800000000     0.559600000000     0.069700000000     0          
H8       H      0.264900000000     0.599500000000     0.123400000000     0          
C13      C      0.221200000000     0.551000000000     0.352200000000     0          
C14      C      0.214100000000     0.492400000000     0.264700000000     0          
C15      C      0.182000000000     0.547900000000     0.380500000000     0          
C16      C      0.244500000000     0.583200000000     0.395900000000     0          
C17      C      0.175100000000     0.490200000000     0.292300000000     0          
H9       H      0.225200000000     0.473000000000     0.226600000000     0          
H10      H      0.171400000000     0.566400000000     0.421700000000     0          
C18      C      0.159300000000     0.518000000000     0.348100000000     0          
H11      H      0.227300000000     0.599000000000     0.434500000000     0          
H12      H      0.255900000000     0.599700000000     0.348600000000     0          
H13      H      0.265300000000     0.571900000000     0.433100000000     0          
H14      H      0.159400000000     0.469100000000     0.272200000000     0          
C19      C      0.117700000000     0.513800000000     0.377600000000     0          
Zr2      Zr     0.530250000000     0.530250000000     0.863290000000     0          
Zr3      Zr     0.458730000000     0.458730000000     0.899370000000     0          
O6       O      0.516800000000     0.516800000000     0.726100000000     0          
O9       O      0.460000000000     0.460000000000     0.751300000000     0          
C3       C      0.488500000000     0.488500000000     0.706300000000     0          
C6       C      0.481000000000     0.481000000000     0.606500000000     0          
H3       H      0.462400000000     0.462400000000     0.586700000000     0          
C9       C      0.503200000000     0.503200000000     0.543900000000     0          
H5       H      0.521900000000     0.521900000000     0.563700000000     0          
O1       O      0.980000000000     0.469360000000     0.382500000000     0          
O2       O      0.938600000000     0.511920000000     0.481300000000     0          
O3       O      0.949720000000     0.403000000000     0.603100000000     0          
O4       O      0.895000000000     0.457710000000     0.575400000000     0          
C1       C      0.974100000000     0.393600000000     0.660900000000     0          
O7       O      0.915610000000     0.501970000000     0.308800000000     0          
O10      O      0.099700000000     0.483400000000     0.358000000000     0          
C2       C      0.972900000000     0.353900000000     0.700800000000     0          
C4       C      0.948400000000     0.326500000000     0.662800000000     0          
C5       C      0.997800000000     0.343200000000     0.773600000000     0          
H1       H      0.931000000000     0.333800000000     0.615500000000     0          
C7       C      0.949200000000     0.288600000000     0.693400000000     0          
C8       C      0.997400000000     0.305700000000     0.804300000000     0          
H2       H      0.014500000000     0.361900000000     0.800700000000     0          
C10      C      0.974800000000     0.277400000000     0.763800000000     0          
C11      C      0.928000000000     0.257800000000     0.629700000000     0          
H4       H      0.013100000000     0.298900000000     0.855000000000     0          
C12      C      0.976300000000     0.235800000000     0.794600000000     0          
H6       H      0.930100000000     0.231800000000     0.656800000000     0          
H7       H      0.940400000000     0.257800000000     0.569700000000     0          
H8       H      0.900500000000     0.264900000000     0.623400000000     0          
C13      C      0.949000000000     0.221200000000     0.852200000000     0          
C14      C      0.007600000000     0.214100000000     0.764700000000     0          
C15      C      0.952100000000     0.182000000000     0.880500000000     0          
C16      C      0.916800000000     0.244500000000     0.895900000000     0          
C17      C      0.009800000000     0.175100000000     0.792300000000     0          
H9       H      0.027000000000     0.225200000000     0.726600000000     0          
H10      H      0.933600000000     0.171400000000     0.921700000000     0          
C18      C      0.982000000000     0.159300000000     0.848100000000     0          
H11      H      0.901000000000     0.227300000000     0.934500000000     0          
H12      H      0.900300000000     0.255900000000     0.848600000000     0          
H13      H      0.928100000000     0.265300000000     0.933100000000     0          
H14      H      0.030900000000     0.159400000000     0.772200000000     0          
C19      C      0.986200000000     0.117700000000     0.877600000000     0          
Zr2      Zr     0.969750000000     0.530250000000     0.363290000000     0          
Zr3      Zr     0.041270000000     0.458730000000     0.399370000000     0          
O6       O      0.983200000000     0.516800000000     0.226100000000     0          
O9       O      0.040000000000     0.460000000000     0.251300000000     0          
C3       C      0.011500000000     0.488500000000     0.206300000000     0          
C6       C      0.019000000000     0.481000000000     0.106500000000     0          
H3       H      0.037600000000     0.462400000000     0.086700000000     0          
C9       C      0.996800000000     0.503200000000     0.043900000000     0          
H5       H      0.978100000000     0.521900000000     0.063700000000     0          
O1       O      0.030640000000     0.980000000000     0.882500000000     0          
O2       O      0.988080000000     0.938600000000     0.981300000000     0          
O3       O      0.097000000000     0.949720000000     0.103100000000     0          
O4       O      0.042290000000     0.895000000000     0.075400000000     0          
C1       C      0.106400000000     0.974100000000     0.160900000000     0          
O7       O      0.998030000000     0.915610000000     0.808800000000     0          
O10      O      0.016600000000     0.099700000000     0.858000000000     0          
C2       C      0.146100000000     0.972900000000     0.200800000000     0          
C4       C      0.173500000000     0.948400000000     0.162800000000     0          
C5       C      0.156800000000     0.997800000000     0.273600000000     0          
H1       H      0.166200000000     0.931000000000     0.115500000000     0          
C7       C      0.211400000000     0.949200000000     0.193400000000     0          
C8       C      0.194300000000     0.997400000000     0.304300000000     0          
H2       H      0.138100000000     0.014500000000     0.300700000000     0          
C10      C      0.222600000000     0.974800000000     0.263800000000     0          
C11      C      0.242200000000     0.928000000000     0.129700000000     0          
H4       H      0.201100000000     0.013100000000     0.355000000000     0          
C12      C      0.264200000000     0.976300000000     0.294600000000     0          
H6       H      0.268200000000     0.930100000000     0.156800000000     0          
H7       H      0.242200000000     0.940400000000     0.069700000000     0          
H8       H      0.235100000000     0.900500000000     0.123400000000     0          
C13      C      0.278800000000     0.949000000000     0.352200000000     0          
C14      C      0.285900000000     0.007600000000     0.264700000000     0          
C15      C      0.318000000000     0.952100000000     0.380500000000     0          
C16      C      0.255500000000     0.916800000000     0.395900000000     0          
C17      C      0.324900000000     0.009800000000     0.292300000000     0          
H9       H      0.274800000000     0.027000000000     0.226600000000     0          
H10      H      0.328600000000     0.933600000000     0.421700000000     0          
C18      C      0.340700000000     0.982000000000     0.348100000000     0          
H11      H      0.272700000000     0.901000000000     0.434500000000     0          
H12      H      0.244100000000     0.900300000000     0.348600000000     0          
H13      H      0.234700000000     0.928100000000     0.433100000000     0          
H14      H      0.340600000000     0.030900000000     0.272200000000     0          
C19      C      0.382300000000     0.986200000000     0.377600000000     0          
Zr2      Zr     0.969750000000     0.969750000000     0.863290000000     0          
Zr3      Zr     0.041270000000     0.041270000000     0.899370000000     0          
O6       O      0.983200000000     0.983200000000     0.726100000000     0          
O9       O      0.040000000000     0.040000000000     0.751300000000     0          
C3       C      0.011500000000     0.011500000000     0.706300000000     0          
C6       C      0.019000000000     0.019000000000     0.606500000000     0          
H3       H      0.037600000000     0.037600000000     0.586700000000     0          
C9       C      0.996800000000     0.996800000000     0.543900000000     0          
H5       H      0.978100000000     0.978100000000     0.563700000000     0          
O1       O      0.520000000000     0.030640000000     0.382500000000     0          
O2       O      0.561400000000     0.988080000000     0.481300000000     0          
O3       O      0.550280000000     0.097000000000     0.603100000000     0          
O4       O      0.605000000000     0.042290000000     0.575400000000     0          
C1       C      0.525900000000     0.106400000000     0.660900000000     0          
O7       O      0.584390000000     0.998030000000     0.308800000000     0          
O10      O      0.400300000000     0.016600000000     0.358000000000     0          
C2       C      0.527100000000     0.146100000000     0.700800000000     0          
C4       C      0.551600000000     0.173500000000     0.662800000000     0          
C5       C      0.502200000000     0.156800000000     0.773600000000     0          
H1       H      0.569000000000     0.166200000000     0.615500000000     0          
C7       C      0.550800000000     0.211400000000     0.693400000000     0          
C8       C      0.502600000000     0.194300000000     0.804300000000     0          
H2       H      0.485500000000     0.138100000000     0.800700000000     0          
C10      C      0.525200000000     0.222600000000     0.763800000000     0          
C11      C      0.572000000000     0.242200000000     0.629700000000     0          
H4       H      0.486900000000     0.201100000000     0.855000000000     0          
C12      C      0.523700000000     0.264200000000     0.794600000000     0          
H6       H      0.569900000000     0.268200000000     0.656800000000     0          
H7       H      0.559600000000     0.242200000000     0.569700000000     0          
H8       H      0.599500000000     0.235100000000     0.623400000000     0          
C13      C      0.551000000000     0.278800000000     0.852200000000     0          
C14      C      0.492400000000     0.285900000000     0.764700000000     0          
C15      C      0.547900000000     0.318000000000     0.880500000000     0          
C16      C      0.583200000000     0.255500000000     0.895900000000     0          
C17      C      0.490200000000     0.324900000000     0.792300000000     0          
H9       H      0.473000000000     0.274800000000     0.726600000000     0          
H10      H      0.566400000000     0.328600000000     0.921700000000     0          
C18      C      0.518000000000     0.340700000000     0.848100000000     0          
H11      H      0.599000000000     0.272700000000     0.934500000000     0          
H12      H      0.599700000000     0.244100000000     0.848600000000     0          
H13      H      0.571900000000     0.234700000000     0.933100000000     0          
H14      H      0.469100000000     0.340600000000     0.772200000000     0          
C19      C      0.513800000000     0.382300000000     0.877600000000     0          
Zr2      Zr     0.530250000000     0.969750000000     0.363290000000     0          
Zr3      Zr     0.458730000000     0.041270000000     0.399370000000     0          
O6       O      0.516800000000     0.983200000000     0.226100000000     0          
O9       O      0.460000000000     0.040000000000     0.251300000000     0          
C3       C      0.488500000000     0.011500000000     0.206300000000     0          
C6       C      0.481000000000     0.019000000000     0.106500000000     0          
H3       H      0.462400000000     0.037600000000     0.086700000000     0          
C9       C      0.503200000000     0.996800000000     0.043900000000     0          
H5       H      0.521900000000     0.978100000000     0.063700000000     0          
O1       O      0.030640000000     0.520000000000     0.382500000000     0          
O2       O      0.988080000000     0.561400000000     0.481300000000     0          
O3       O      0.097000000000     0.550280000000     0.603100000000     0          
O4       O      0.042290000000     0.605000000000     0.575400000000     0          
C1       C      0.106400000000     0.525900000000     0.660900000000     0          
O7       O      0.998030000000     0.584390000000     0.308800000000     0          
O10      O      0.016600000000     0.400300000000     0.358000000000     0          
C2       C      0.146100000000     0.527100000000     0.700800000000     0          
C4       C      0.173500000000     0.551600000000     0.662800000000     0          
C5       C      0.156800000000     0.502200000000     0.773600000000     0          
H1       H      0.166200000000     0.569000000000     0.615500000000     0          
C7       C      0.211400000000     0.550800000000     0.693400000000     0          
C8       C      0.194300000000     0.502600000000     0.804300000000     0          
H2       H      0.138100000000     0.485500000000     0.800700000000     0          
C10      C      0.222600000000     0.525200000000     0.763800000000     0          
C11      C      0.242200000000     0.572000000000     0.629700000000     0          
H4       H      0.201100000000     0.486900000000     0.855000000000     0          
C12      C      0.264200000000     0.523700000000     0.794600000000     0          
H6       H      0.268200000000     0.569900000000     0.656800000000     0          
H7       H      0.242200000000     0.559600000000     0.569700000000     0          
H8       H      0.235100000000     0.599500000000     0.623400000000     0          
C13      C      0.278800000000     0.551000000000     0.852200000000     0          
C14      C      0.285900000000     0.492400000000     0.764700000000     0          
C15      C      0.318000000000     0.547900000000     0.880500000000     0          
C16      C      0.255500000000     0.583200000000     0.895900000000     0          
C17      C      0.324900000000     0.490200000000     0.792300000000     0          
H9       H      0.274800000000     0.473000000000     0.726600000000     0          
H10      H      0.328600000000     0.566400000000     0.921700000000     0          
C18      C      0.340700000000     0.518000000000     0.848100000000     0          
H11      H      0.272700000000     0.599000000000     0.934500000000     0          
H12      H      0.244100000000     0.599700000000     0.848600000000     0          
H13      H      0.234700000000     0.571900000000     0.933100000000     0          
H14      H      0.340600000000     0.469100000000     0.772200000000     0          
C19      C      0.382300000000     0.513800000000     0.877600000000     0          
Zr1      Zr     0.050670000000     0.550670000000     0.500000000000     0          
O1       O      0.980000000000     0.030640000000     0.882500000000     0          
O2       O      0.938600000000     0.988080000000     0.981300000000     0          
O3       O      0.949720000000     0.097000000000     0.103100000000     0          
O4       O      0.895000000000     0.042290000000     0.075400000000     0          
C1       C      0.974100000000     0.106400000000     0.160900000000     0          
O7       O      0.915610000000     0.998030000000     0.808800000000     0          
O10      O      0.099700000000     0.016600000000     0.858000000000     0          
C2       C      0.972900000000     0.146100000000     0.200800000000     0          
C4       C      0.948400000000     0.173500000000     0.162800000000     0          
C5       C      0.997800000000     0.156800000000     0.273600000000     0          
H1       H      0.931000000000     0.166200000000     0.115500000000     0          
C7       C      0.949200000000     0.211400000000     0.193400000000     0          
C8       C      0.997400000000     0.194300000000     0.304300000000     0          
H2       H      0.014500000000     0.138100000000     0.300700000000     0          
C10      C      0.974800000000     0.222600000000     0.263800000000     0          
C11      C      0.928000000000     0.242200000000     0.129700000000     0          
H4       H      0.013100000000     0.201100000000     0.355000000000     0          
C12      C      0.976300000000     0.264200000000     0.294600000000     0          
H6       H      0.930100000000     0.268200000000     0.156800000000     0          
H7       H      0.940400000000     0.242200000000     0.069700000000     0          
H8       H      0.900500000000     0.235100000000     0.123400000000     0          
C13      C      0.949000000000     0.278800000000     0.352200000000     0          
C14      C      0.007600000000     0.285900000000     0.264700000000     0          
C15      C      0.952100000000     0.318000000000     0.380500000000     0          
C16      C      0.916800000000     0.255500000000     0.395900000000     0          
C17      C      0.009800000000     0.324900000000     0.292300000000     0          
H9       H      0.027000000000     0.274800000000     0.226600000000     0          
H10      H      0.933600000000     0.328600000000     0.421700000000     0          
C18      C      0.982000000000     0.340700000000     0.348100000000     0          
H11      H      0.901000000000     0.272700000000     0.434500000000     0          
H12      H      0.900300000000     0.244100000000     0.348600000000     0          
H13      H      0.928100000000     0.234700000000     0.433100000000     0          
H14      H      0.030900000000     0.340600000000     0.272200000000     0          
C19      C      0.986200000000     0.382300000000     0.377600000000     0          
Zr1      Zr     0.949330000000     0.050670000000     0.000000000000     0          
O1       O      0.469360000000     0.980000000000     0.382500000000     0          
O2       O      0.511920000000     0.938600000000     0.481300000000     0          
O3       O      0.403000000000     0.949720000000     0.603100000000     0          
O4       O      0.457710000000     0.895000000000     0.575400000000     0          
C1       C      0.393600000000     0.974100000000     0.660900000000     0          
O7       O      0.501970000000     0.915610000000     0.308800000000     0          
O10      O      0.483400000000     0.099700000000     0.358000000000     0          
C2       C      0.353900000000     0.972900000000     0.700800000000     0          
C4       C      0.326500000000     0.948400000000     0.662800000000     0          
C5       C      0.343200000000     0.997800000000     0.773600000000     0          
H1       H      0.333800000000     0.931000000000     0.615500000000     0          
C7       C      0.288600000000     0.949200000000     0.693400000000     0          
C8       C      0.305700000000     0.997400000000     0.804300000000     0          
H2       H      0.361900000000     0.014500000000     0.800700000000     0          
C10      C      0.277400000000     0.974800000000     0.763800000000     0          
C11      C      0.257800000000     0.928000000000     0.629700000000     0          
H4       H      0.298900000000     0.013100000000     0.855000000000     0          
C12      C      0.235800000000     0.976300000000     0.794600000000     0          
H6       H      0.231800000000     0.930100000000     0.656800000000     0          
H7       H      0.257800000000     0.940400000000     0.569700000000     0          
H8       H      0.264900000000     0.900500000000     0.623400000000     0          
C13      C      0.221200000000     0.949000000000     0.852200000000     0          
C14      C      0.214100000000     0.007600000000     0.764700000000     0          
C15      C      0.182000000000     0.952100000000     0.880500000000     0          
C16      C      0.244500000000     0.916800000000     0.895900000000     0          
C17      C      0.175100000000     0.009800000000     0.792300000000     0          
H9       H      0.225200000000     0.027000000000     0.726600000000     0          
H10      H      0.171400000000     0.933600000000     0.921700000000     0          
C18      C      0.159300000000     0.982000000000     0.848100000000     0          
H11      H      0.227300000000     0.901000000000     0.934500000000     0          
H12      H      0.255900000000     0.900300000000     0.848600000000     0          
H13      H      0.265300000000     0.928100000000     0.933100000000     0          
H14      H      0.159400000000     0.030900000000     0.772200000000     0          
C19      C      0.117700000000     0.986200000000     0.877600000000     0          
Zr1      Zr     0.449330000000     0.949330000000     0.500000000000     0          
O1       O      0.520000000000     0.469360000000     0.882500000000     0          
O2       O      0.561400000000     0.511920000000     0.981300000000     0          
O3       O      0.550280000000     0.403000000000     0.103100000000     0          
O4       O      0.605000000000     0.457710000000     0.075400000000     0          
C1       C      0.525900000000     0.393600000000     0.160900000000     0          
O7       O      0.584390000000     0.501970000000     0.808800000000     0          
O10      O      0.400300000000     0.483400000000     0.858000000000     0          
C2       C      0.527100000000     0.353900000000     0.200800000000     0          
C4       C      0.551600000000     0.326500000000     0.162800000000     0          
C5       C      0.502200000000     0.343200000000     0.273600000000     0          
H1       H      0.569000000000     0.333800000000     0.115500000000     0          
C7       C      0.550800000000     0.288600000000     0.193400000000     0          
C8       C      0.502600000000     0.305700000000     0.304300000000     0          
H2       H      0.485500000000     0.361900000000     0.300700000000     0          
C10      C      0.525200000000     0.277400000000     0.263800000000     0          
C11      C      0.572000000000     0.257800000000     0.129700000000     0          
H4       H      0.486900000000     0.298900000000     0.355000000000     0          
C12      C      0.523700000000     0.235800000000     0.294600000000     0          
H6       H      0.569900000000     0.231800000000     0.156800000000     0          
H7       H      0.559600000000     0.257800000000     0.069700000000     0          
H8       H      0.599500000000     0.264900000000     0.123400000000     0          
C13      C      0.551000000000     0.221200000000     0.352200000000     0          
C14      C      0.492400000000     0.214100000000     0.264700000000     0          
C15      C      0.547900000000     0.182000000000     0.380500000000     0          
C16      C      0.583200000000     0.244500000000     0.395900000000     0          
C17      C      0.490200000000     0.175100000000     0.292300000000     0          
H9       H      0.473000000000     0.225200000000     0.226600000000     0          
H10      H      0.566400000000     0.171400000000     0.421700000000     0          
C18      C      0.518000000000     0.159300000000     0.348100000000     0          
H11      H      0.599000000000     0.227300000000     0.434500000000     0          
H12      H      0.599700000000     0.255900000000     0.348600000000     0          
H13      H      0.571900000000     0.265300000000     0.433100000000     0          
H14      H      0.469100000000     0.159400000000     0.272200000000     0          
C19      C      0.513800000000     0.117700000000     0.377600000000     0          
Zr1      Zr     0.550670000000     0.449330000000     0.000000000000     0          
O1       O      0.530640000000     0.480000000000     0.117500000000     0          
O2       O      0.488080000000     0.438600000000     0.018700000000     0          
O3       O      0.597000000000     0.449720000000     0.896900000000     0          
O4       O      0.542290000000     0.395000000000     0.924600000000     0          
C1       C      0.606400000000     0.474100000000     0.839100000000     0          
O7       O      0.498030000000     0.415610000000     0.191200000000     0          
O10      O      0.516600000000     0.599700000000     0.142000000000     0          
C2       C      0.646100000000     0.472900000000     0.799200000000     0          
C4       C      0.673500000000     0.448400000000     0.837200000000     0          
C5       C      0.656800000000     0.497800000000     0.726400000000     0          
H1       H      0.666200000000     0.431000000000     0.884500000000     0          
C7       C      0.711400000000     0.449200000000     0.806600000000     0          
C8       C      0.694300000000     0.497400000000     0.695700000000     0          
H2       H      0.638100000000     0.514500000000     0.699300000000     0          
C10      C      0.722600000000     0.474800000000     0.736200000000     0          
C11      C      0.742200000000     0.428000000000     0.870300000000     0          
H4       H      0.701100000000     0.513100000000     0.645000000000     0          
C12      C      0.764200000000     0.476300000000     0.705400000000     0          
H6       H      0.768200000000     0.430100000000     0.843200000000     0          
H7       H      0.742200000000     0.440400000000     0.930300000000     0          
H8       H      0.735100000000     0.400500000000     0.876600000000     0          
C13      C      0.778800000000     0.449000000000     0.647800000000     0          
C14      C      0.785900000000     0.507600000000     0.735300000000     0          
C15      C      0.818000000000     0.452100000000     0.619500000000     0          
C16      C      0.755500000000     0.416800000000     0.604100000000     0          
C17      C      0.824900000000     0.509800000000     0.707700000000     0          
H9       H      0.774800000000     0.527000000000     0.773400000000     0          
H10      H      0.828600000000     0.433600000000     0.578300000000     0          
C18      C      0.840700000000     0.482000000000     0.651900000000     0          
H11      H      0.772700000000     0.401000000000     0.565500000000     0          
H12      H      0.744100000000     0.400300000000     0.651400000000     0          
H13      H      0.734700000000     0.428100000000     0.566900000000     0          
H14      H      0.840600000000     0.530900000000     0.727800000000     0          
C19      C      0.882300000000     0.486200000000     0.622400000000     0          
O1       O      0.020000000000     0.530640000000     0.617500000000     0          
O2       O      0.061400000000     0.488080000000     0.518700000000     0          
O3       O      0.050280000000     0.597000000000     0.396900000000     0          
O4       O      0.105000000000     0.542290000000     0.424600000000     0          
C1       C      0.025900000000     0.606400000000     0.339100000000     0          
O7       O      0.084390000000     0.498030000000     0.691200000000     0          
O10      O      0.900300000000     0.516600000000     0.642000000000     0          
C2       C      0.027100000000     0.646100000000     0.299200000000     0          
C4       C      0.051600000000     0.673500000000     0.337200000000     0          
C5       C      0.002200000000     0.656800000000     0.226400000000     0          
H1       H      0.069000000000     0.666200000000     0.384500000000     0          
C7       C      0.050800000000     0.711400000000     0.306600000000     0          
C8       C      0.002600000000     0.694300000000     0.195700000000     0          
H2       H      0.985500000000     0.638100000000     0.199300000000     0          
C10      C      0.025200000000     0.722600000000     0.236200000000     0          
C11      C      0.072000000000     0.742200000000     0.370300000000     0          
H4       H      0.986900000000     0.701100000000     0.145000000000     0          
C12      C      0.023700000000     0.764200000000     0.205400000000     0          
H6       H      0.069900000000     0.768200000000     0.343200000000     0          
H7       H      0.059600000000     0.742200000000     0.430300000000     0          
H8       H      0.099500000000     0.735100000000     0.376600000000     0          
C13      C      0.051000000000     0.778800000000     0.147800000000     0          
C14      C      0.992400000000     0.785900000000     0.235300000000     0          
C15      C      0.047900000000     0.818000000000     0.119500000000     0          
C16      C      0.083200000000     0.755500000000     0.104100000000     0          
C17      C      0.990200000000     0.824900000000     0.207700000000     0          
H9       H      0.973000000000     0.774800000000     0.273400000000     0          
H10      H      0.066400000000     0.828600000000     0.078300000000     0          
C18      C      0.018000000000     0.840700000000     0.151900000000     0          
H11      H      0.099000000000     0.772700000000     0.065500000000     0          
H12      H      0.099700000000     0.744100000000     0.151400000000     0          
H13      H      0.071900000000     0.734700000000     0.066900000000     0          
H14      H      0.969100000000     0.840600000000     0.227800000000     0          
C19      C      0.013800000000     0.882300000000     0.122400000000     0          
O1       O      0.969360000000     0.020000000000     0.117500000000     0          
O2       O      0.011920000000     0.061400000000     0.018700000000     0          
O3       O      0.903000000000     0.050280000000     0.896900000000     0          
O4       O      0.957710000000     0.105000000000     0.924600000000     0          
C1       C      0.893600000000     0.025900000000     0.839100000000     0          
O7       O      0.001970000000     0.084390000000     0.191200000000     0          
O10      O      0.983400000000     0.900300000000     0.142000000000     0          
C2       C      0.853900000000     0.027100000000     0.799200000000     0          
C4       C      0.826500000000     0.051600000000     0.837200000000     0          
C5       C      0.843200000000     0.002200000000     0.726400000000     0          
H1       H      0.833800000000     0.069000000000     0.884500000000     0          
C7       C      0.788600000000     0.050800000000     0.806600000000     0          
C8       C      0.805700000000     0.002600000000     0.695700000000     0          
H2       H      0.861900000000     0.985500000000     0.699300000000     0          
C10      C      0.777400000000     0.025200000000     0.736200000000     0          
C11      C      0.757800000000     0.072000000000     0.870300000000     0          
H4       H      0.798900000000     0.986900000000     0.645000000000     0          
C12      C      0.735800000000     0.023700000000     0.705400000000     0          
H6       H      0.731800000000     0.069900000000     0.843200000000     0          
H7       H      0.757800000000     0.059600000000     0.930300000000     0          
H8       H      0.764900000000     0.099500000000     0.876600000000     0          
C13      C      0.721200000000     0.051000000000     0.647800000000     0          
C14      C      0.714100000000     0.992400000000     0.735300000000     0          
C15      C      0.682000000000     0.047900000000     0.619500000000     0          
C16      C      0.744500000000     0.083200000000     0.604100000000     0          
C17      C      0.675100000000     0.990200000000     0.707700000000     0          
H9       H      0.725200000000     0.973000000000     0.773400000000     0          
H10      H      0.671400000000     0.066400000000     0.578300000000     0          
C18      C      0.659300000000     0.018000000000     0.651900000000     0          
H11      H      0.727300000000     0.099000000000     0.565500000000     0          
H12      H      0.755900000000     0.099700000000     0.651400000000     0          
H13      H      0.765300000000     0.071900000000     0.566900000000     0          
H14      H      0.659400000000     0.969100000000     0.727800000000     0          
C19      C      0.617700000000     0.013800000000     0.622400000000     0          
O1       O      0.480000000000     0.969360000000     0.617500000000     0          
O2       O      0.438600000000     0.011920000000     0.518700000000     0          
O3       O      0.449720000000     0.903000000000     0.396900000000     0          
O4       O      0.395000000000     0.957710000000     0.424600000000     0          
C1       C      0.474100000000     0.893600000000     0.339100000000     0          
O7       O      0.415610000000     0.001970000000     0.691200000000     0          
O10      O      0.599700000000     0.983400000000     0.642000000000     0          
C2       C      0.472900000000     0.853900000000     0.299200000000     0          
C4       C      0.448400000000     0.826500000000     0.337200000000     0          
C5       C      0.497800000000     0.843200000000     0.226400000000     0          
H1       H      0.431000000000     0.833800000000     0.384500000000     0          
C7       C      0.449200000000     0.788600000000     0.306600000000     0          
C8       C      0.497400000000     0.805700000000     0.195700000000     0          
H2       H      0.514500000000     0.861900000000     0.199300000000     0          
C10      C      0.474800000000     0.777400000000     0.236200000000     0          
C11      C      0.428000000000     0.757800000000     0.370300000000     0          
H4       H      0.513100000000     0.798900000000     0.145000000000     0          
C12      C      0.476300000000     0.735800000000     0.205400000000     0          
H6       H      0.430100000000     0.731800000000     0.343200000000     0          
H7       H      0.440400000000     0.757800000000     0.430300000000     0          
H8       H      0.400500000000     0.764900000000     0.376600000000     0          
C13      C      0.449000000000     0.721200000000     0.147800000000     0          
C14      C      0.507600000000     0.714100000000     0.235300000000     0          
C15      C      0.452100000000     0.682000000000     0.119500000000     0          
C16      C      0.416800000000     0.744500000000     0.104100000000     0          
C17      C      0.509800000000     0.675100000000     0.207700000000     0          
H9       H      0.527000000000     0.725200000000     0.273400000000     0          
H10      H      0.433600000000     0.671400000000     0.078300000000     0          
C18      C      0.482000000000     0.659300000000     0.151900000000     0          
H11      H      0.401000000000     0.727300000000     0.065500000000     0          
H12      H      0.400300000000     0.755900000000     0.151400000000     0          
H13      H      0.428100000000     0.765300000000     0.066900000000     0          
H14      H      0.530900000000     0.659400000000     0.227800000000     0          
C19      C      0.486200000000     0.617700000000     0.122400000000     0          


