data_SEMMIJ

_audit_creation_method RASPA-1.0
_audit_creation_date 2020-4-3
_audit_author_name 'Rocio Bueno-Perez'

_cell_length_a    37.5757
_cell_length_b    37.5757
_cell_length_c    19.5245
_cell_angle_alpha 90
_cell_angle_beta  90
_cell_angle_gamma 120
_cell_volume      23874

_symmetry_cell_setting          hexagonal
_symmetry_space_group_name_Hall 'P 1'
_symmetry_space_group_name_H-M  'P 1'
_symmetry_Int_Tables_number     1

_symmetry_equiv_pos_as_xyz 'x,y,z'

loop_
_atom_site_label
_atom_site_type_symbol
_atom_site_fract_x
_atom_site_fract_y
_atom_site_fract_z
_atom_site_charge
S1       S      0.675950000000     0.117520000000     0.711340000000     0          
O1       O      0.605410000000     0.074080000000     0.594000000000     0          
O2       O      0.555800000000     0.035630000000     0.672480000000     0          
O3       O      0.701000000000     0.122290000000     0.908510000000     0          
O4       O      0.740670000000     0.165750000000     0.823490000000     0          
C1       C      0.593210000000     0.062080000000     0.655450000000     0          
C2       C      0.625670000000     0.076590000000     0.711380000000     0          
C3       C      0.680310000000     0.104860000000     0.793570000000     0          
C4       C      0.644880000000     0.070870000000     0.817960000000     0          
C5       C      0.613950000000     0.055200000000     0.771810000000     0          
C6       C      0.708730000000     0.132370000000     0.845700000000     0          
H1       H      0.640950000000     0.058600000000     0.868680000000     0          
H2       H      0.583480000000     0.029240000000     0.782790000000     0          
O5       O      0.736110000000     0.200300000000     0.063120000000     0          
O6       O      0.777250000000     0.162480000000     0.936480000000     0          
Zr1      Zr     0.727520000000     0.152220000000     0.000000000000     0          
O7       O      0.719690000000     0.093230000000     0.000000000000     0          
O8       O      0.787360000000     0.108140000000     0.000000000000     0          
O9       O      0.684950000000     0.213220000000     0.000000000000     0          
O10      O      0.668150000000     0.145020000000     0.000000000000     0          
C7       C      0.747670000000     0.082400000000     0.000000000000     0          
C8       C      0.735580000000     0.037530000000     0.000000000000     0          
C9       C      0.658480000000     0.173920000000     0.000000000000     0          
C10      C      0.613760000000     0.162850000000     0.000000000000     0          
C11      C      0.580020000000     0.122920000000     0.000000000000     0          
H3       H      0.582280000000     0.094980000000     0.000000000000     0          
C12      C      0.761970000000     0.021370000000     0.000000000000     0          
H4       H      0.795540000000     0.039920000000     0.000000000000     0          
Zr2      Zr     0.825060000000     0.174940000000     0.000000000000     0          
Zr3      Zr     0.750340000000     0.249660000000     0.000000000000     0          
S2       S      0.600330000000     0.200650000000     0.000000000000     0          
S3       S      0.683900000000     0.000000000000     0.000000000000     0          
Zr4      Zr     0.573150000000     0.054380000000     0.500000000000     0          
O11      O      0.626130000000     0.049770000000     0.500000000000     0          
O12      O      0.599790000000     0.118710000000     0.500000000000     0          
Zr5      Zr     0.787230000000     0.212770000000     0.877130000000     0          
O13      O      0.846050000000     0.153950000000     0.081770000000     0          
O14      O      0.730090000000     0.269910000000     0.081990000000     0          
O15      O      0.761200000000     0.238800000000     0.811770000000     0          
O16      O      0.812620000000     0.187380000000     0.805990000000     0          
Zr6      Zr     0.500000000000     0.000000000000     0.611510000000     0          
O17      O      0.548120000000     0.000000000000     0.559810000000     0          
O18      O      0.528050000000     0.056100000000     0.438520000000     0          
O7G      O      0.626460000000     0.906770000000     0.000000000000     0          
O8G      O      0.679220000000     0.891860000000     0.000000000000     0          
C7G      C      0.665270000000     0.917600000000     0.000000000000     0          
C8G      C      0.698050000000     0.962470000000     0.000000000000     0          
C12G     C      0.740600000000     0.978630000000     0.000000000000     0          
H4G      H      0.755620000000     0.960080000000     0.000000000000     0          
O9J      O      0.528270000000     0.213220000000     0.000000000000     0          
O10J     O      0.476870000000     0.145020000000     0.000000000000     0          
C9J      C      0.515440000000     0.173920000000     0.000000000000     0          
C10J     C      0.549090000000     0.162850000000     0.000000000000     0          
C11J     C      0.542900000000     0.122920000000     0.000000000000     0          
H3J      H      0.512700000000     0.094980000000     0.000000000000     0          
S1C      S      0.324050000000     0.882480000000     0.711340000000     0          
O1C      O      0.394590000000     0.925920000000     0.594000000000     0          
O2C      O      0.444200000000     0.964370000000     0.672480000000     0          
O3C      O      0.299000000000     0.877710000000     0.908510000000     0          
O4C      O      0.259330000000     0.834250000000     0.823490000000     0          
C1C      C      0.406790000000     0.937920000000     0.655450000000     0          
C2C      C      0.374330000000     0.923410000000     0.711380000000     0          
C3C      C      0.319690000000     0.895140000000     0.793570000000     0          
C4C      C      0.355120000000     0.929130000000     0.817960000000     0          
C5C      C      0.386050000000     0.944800000000     0.771810000000     0          
C6C      C      0.291270000000     0.867630000000     0.845700000000     0          
H1C      H      0.359050000000     0.941400000000     0.868680000000     0          
H2C      H      0.416520000000     0.970760000000     0.782790000000     0          
O17C     O      0.451880000000     0.000000000000     0.559810000000     0          
S1O      S      0.675950000000     0.117520000000     0.288660000000     0          
O1O      O      0.605410000000     0.074080000000     0.406000000000     0          
O2O      O      0.555800000000     0.035630000000     0.327520000000     0          
O3O      O      0.701000000000     0.122290000000     0.091490000000     0          
O4O      O      0.740670000000     0.165750000000     0.176510000000     0          
C1O      C      0.593210000000     0.062080000000     0.344550000000     0          
C2O      C      0.625670000000     0.076590000000     0.288620000000     0          
C3O      C      0.680310000000     0.104860000000     0.206430000000     0          
C4O      C      0.644880000000     0.070870000000     0.182040000000     0          
C5O      C      0.613950000000     0.055200000000     0.228190000000     0          
C6O      C      0.708730000000     0.132370000000     0.154300000000     0          
H1O      H      0.640950000000     0.058600000000     0.131320000000     0          
H2O      H      0.583480000000     0.029240000000     0.217210000000     0          
O5O      O      0.736110000000     0.200300000000     0.936880000000     0          
O6O      O      0.777250000000     0.162480000000     0.063520000000     0          
Zr5I     Zr     0.787230000000     0.212770000000     0.122870000000     0          
O15I     O      0.761200000000     0.238800000000     0.188230000000     0          
O16I     O      0.812620000000     0.187380000000     0.194010000000     0          
O18J     O      0.528050000000     0.056100000000     0.561480000000     0          
O13I     O      0.846050000000     0.153950000000     0.918230000000     0          
O14I     O      0.730090000000     0.269910000000     0.918010000000     0          
O5I      O      0.799700000000     0.263890000000     0.936880000000     0          
O6I      O      0.837520000000     0.222750000000     0.063520000000     0          
O2S      O      0.479830000000     0.035630000000     0.672480000000     0          
O2V      O      0.520170000000     0.964370000000     0.672480000000     0          
O4I      O      0.834250000000     0.259330000000     0.176510000000     0          
O4R      O      0.834250000000     0.259330000000     0.823490000000     0          
O5R      O      0.799700000000     0.263890000000     0.063120000000     0          
O6R      O      0.837520000000     0.222750000000     0.936480000000     0          
Zr1C     Zr     0.272480000000     0.847780000000     0.000000000000     0          
Zr1G     Zr     0.575300000000     0.847780000000     0.000000000000     0          
Zr1I     Zr     0.847780000000     0.272480000000     0.000000000000     0          
Zr1J     Zr     0.424700000000     0.152220000000     0.000000000000     0          
O8I      O      0.891860000000     0.212640000000     0.000000000000     0          
O9I      O      0.786780000000     0.315050000000     0.000000000000     0          
Zr2E     Zr     0.650120000000     0.825060000000     0.000000000000     0          
Zr3B     Zr     0.499320000000     0.249660000000     0.000000000000     0          
Zr4C     Zr     0.426850000000     0.945620000000     0.500000000000     0          
Zr4G     Zr     0.518770000000     0.945620000000     0.500000000000     0          
Zr4J     Zr     0.481230000000     0.054380000000     0.500000000000     0          
Zr5C     Zr     0.212770000000     0.787230000000     0.877130000000     0          
Zr6G     Zr     0.500000000000     0.000000000000     0.388490000000     0          
O17G     O      0.548120000000     0.000000000000     0.440190000000     0          
O18G     O      0.471950000000     0.943900000000     0.561480000000     0          
S1       S      0.558430000000     0.675950000000     0.711340000000     0          
O1       O      0.531330000000     0.605410000000     0.594000000000     0          
O2       O      0.520170000000     0.555800000000     0.672480000000     0          
O3       O      0.578710000000     0.701000000000     0.908510000000     0          
O4       O      0.574920000000     0.740670000000     0.823490000000     0          
C1       C      0.531130000000     0.593210000000     0.655450000000     0          
C2       C      0.549080000000     0.625670000000     0.711380000000     0          
C3       C      0.575450000000     0.680310000000     0.793570000000     0          
C4       C      0.574010000000     0.644880000000     0.817960000000     0          
C5       C      0.558750000000     0.613950000000     0.771810000000     0          
C6       C      0.576360000000     0.708730000000     0.845700000000     0          
H1       H      0.582350000000     0.640950000000     0.868680000000     0          
H2       H      0.554240000000     0.583480000000     0.782790000000     0          
O5       O      0.535810000000     0.736110000000     0.063120000000     0          
O6       O      0.614770000000     0.777250000000     0.936480000000     0          
Zr1      Zr     0.575300000000     0.727520000000     0.000000000000     0          
O7       O      0.626460000000     0.719690000000     0.000000000000     0          
O8       O      0.679220000000     0.787360000000     0.000000000000     0          
O9       O      0.471730000000     0.684950000000     0.000000000000     0          
O10      O      0.523130000000     0.668150000000     0.000000000000     0          
C7       C      0.665270000000     0.747670000000     0.000000000000     0          
C8       C      0.698050000000     0.735580000000     0.000000000000     0          
C9       C      0.484560000000     0.658480000000     0.000000000000     0          
C10      C      0.450910000000     0.613760000000     0.000000000000     0          
C11      C      0.457100000000     0.580020000000     0.000000000000     0          
H3       H      0.487300000000     0.582280000000     0.000000000000     0          
C12      C      0.740600000000     0.761970000000     0.000000000000     0          
H4       H      0.755620000000     0.795540000000     0.000000000000     0          
Zr3      Zr     0.500680000000     0.750340000000     0.000000000000     0          
S2       S      0.399680000000     0.600330000000     0.000000000000     0          
S3       S      0.683900000000     0.683900000000     0.000000000000     0          
Zr4      Zr     0.518770000000     0.573150000000     0.500000000000     0          
O11      O      0.576360000000     0.626130000000     0.500000000000     0          
O12      O      0.481080000000     0.599790000000     0.500000000000     0          
Zr5      Zr     0.574460000000     0.787230000000     0.877130000000     0          
O13      O      0.692100000000     0.846050000000     0.081770000000     0          
O14      O      0.460180000000     0.730090000000     0.081990000000     0          
O15      O      0.522400000000     0.761200000000     0.811770000000     0          
O16      O      0.625240000000     0.812620000000     0.805990000000     0          
Zr6      Zr     0.500000000000     0.500000000000     0.611510000000     0          
O17      O      0.548120000000     0.548120000000     0.559810000000     0          
O18      O      0.471950000000     0.528050000000     0.438520000000     0          
O7G      O      0.719690000000     0.626460000000     0.000000000000     0          
O8G      O      0.787360000000     0.679220000000     0.000000000000     0          
C7G      C      0.747670000000     0.665270000000     0.000000000000     0          
C8G      C      0.735580000000     0.698050000000     0.000000000000     0          
C12G     C      0.761970000000     0.740600000000     0.000000000000     0          
H4G      H      0.795540000000     0.755620000000     0.000000000000     0          
O9J      O      0.315050000000     0.528270000000     0.000000000000     0          
O10J     O      0.331850000000     0.476870000000     0.000000000000     0          
C9J      C      0.341520000000     0.515440000000     0.000000000000     0          
C10J     C      0.386240000000     0.549090000000     0.000000000000     0          
C11J     C      0.419980000000     0.542900000000     0.000000000000     0          
H3J      H      0.417720000000     0.512700000000     0.000000000000     0          
S1C      S      0.441570000000     0.324050000000     0.711340000000     0          
O1C      O      0.468670000000     0.394590000000     0.594000000000     0          
O2C      O      0.479830000000     0.444200000000     0.672480000000     0          
O3C      O      0.421290000000     0.299000000000     0.908510000000     0          
O4C      O      0.425080000000     0.259330000000     0.823490000000     0          
C1C      C      0.468870000000     0.406790000000     0.655450000000     0          
C2C      C      0.450920000000     0.374330000000     0.711380000000     0          
C3C      C      0.424550000000     0.319690000000     0.793570000000     0          
C4C      C      0.425990000000     0.355120000000     0.817960000000     0          
C5C      C      0.441250000000     0.386050000000     0.771810000000     0          
C6C      C      0.423640000000     0.291270000000     0.845700000000     0          
H1C      H      0.417650000000     0.359050000000     0.868680000000     0          
H2C      H      0.445760000000     0.416520000000     0.782790000000     0          
O17C     O      0.451880000000     0.451880000000     0.559810000000     0          
S1O      S      0.558430000000     0.675950000000     0.288660000000     0          
O1O      O      0.531330000000     0.605410000000     0.406000000000     0          
O2O      O      0.520170000000     0.555800000000     0.327520000000     0          
O3O      O      0.578710000000     0.701000000000     0.091490000000     0          
O4O      O      0.574920000000     0.740670000000     0.176510000000     0          
C1O      C      0.531130000000     0.593210000000     0.344550000000     0          
C2O      C      0.549080000000     0.625670000000     0.288620000000     0          
C3O      C      0.575450000000     0.680310000000     0.206430000000     0          
C4O      C      0.574010000000     0.644880000000     0.182040000000     0          
C5O      C      0.558750000000     0.613950000000     0.228190000000     0          
C6O      C      0.576360000000     0.708730000000     0.154300000000     0          
H1O      H      0.582350000000     0.640950000000     0.131320000000     0          
H2O      H      0.554240000000     0.583480000000     0.217210000000     0          
O5O      O      0.535810000000     0.736110000000     0.936880000000     0          
O6O      O      0.614770000000     0.777250000000     0.063520000000     0          
Zr5I     Zr     0.574460000000     0.787230000000     0.122870000000     0          
O15I     O      0.522400000000     0.761200000000     0.188230000000     0          
O16I     O      0.625240000000     0.812620000000     0.194010000000     0          
O18J     O      0.471950000000     0.528050000000     0.561480000000     0          
O13I     O      0.692100000000     0.846050000000     0.918230000000     0          
O14I     O      0.460180000000     0.730090000000     0.918010000000     0          
O5I      O      0.535810000000     0.799700000000     0.936880000000     0          
O6I      O      0.614770000000     0.837520000000     0.063520000000     0          
O2S      O      0.444200000000     0.479830000000     0.672480000000     0          
O2V      O      0.555800000000     0.520170000000     0.672480000000     0          
O4I      O      0.574920000000     0.834250000000     0.176510000000     0          
O4R      O      0.574920000000     0.834250000000     0.823490000000     0          
O5R      O      0.535810000000     0.799700000000     0.063120000000     0          
O6R      O      0.614770000000     0.837520000000     0.936480000000     0          
Zr1C     Zr     0.424700000000     0.272480000000     0.000000000000     0          
Zr1G     Zr     0.727520000000     0.575300000000     0.000000000000     0          
Zr1J     Zr     0.272480000000     0.424700000000     0.000000000000     0          
O9I      O      0.471730000000     0.786780000000     0.000000000000     0          
Zr2E     Zr     0.825060000000     0.650120000000     0.000000000000     0          
Zr3B     Zr     0.249660000000     0.499320000000     0.000000000000     0          
Zr4C     Zr     0.481230000000     0.426850000000     0.500000000000     0          
Zr4G     Zr     0.573150000000     0.518770000000     0.500000000000     0          
Zr4J     Zr     0.426850000000     0.481230000000     0.500000000000     0          
Zr5C     Zr     0.425540000000     0.212770000000     0.877130000000     0          
Zr6G     Zr     0.500000000000     0.500000000000     0.388490000000     0          
O17G     O      0.548120000000     0.548120000000     0.440190000000     0          
O18G     O      0.528050000000     0.471950000000     0.561480000000     0          
S1       S      0.882480000000     0.558430000000     0.711340000000     0          
O1       O      0.925920000000     0.531330000000     0.594000000000     0          
O2       O      0.964370000000     0.520170000000     0.672480000000     0          
O3       O      0.877710000000     0.578710000000     0.908510000000     0          
O4       O      0.834250000000     0.574920000000     0.823490000000     0          
C1       C      0.937920000000     0.531130000000     0.655450000000     0          
C2       C      0.923410000000     0.549080000000     0.711380000000     0          
C3       C      0.895140000000     0.575450000000     0.793570000000     0          
C4       C      0.929130000000     0.574010000000     0.817960000000     0          
C5       C      0.944800000000     0.558750000000     0.771810000000     0          
C6       C      0.867630000000     0.576360000000     0.845700000000     0          
H1       H      0.941400000000     0.582350000000     0.868680000000     0          
H2       H      0.970760000000     0.554240000000     0.782790000000     0          
O5       O      0.799700000000     0.535810000000     0.063120000000     0          
O6       O      0.837520000000     0.614770000000     0.936480000000     0          
Zr1      Zr     0.847780000000     0.575300000000     0.000000000000     0          
O7       O      0.906770000000     0.626460000000     0.000000000000     0          
O8       O      0.891860000000     0.679220000000     0.000000000000     0          
O9       O      0.786780000000     0.471730000000     0.000000000000     0          
O10      O      0.854980000000     0.523130000000     0.000000000000     0          
C7       C      0.917600000000     0.665270000000     0.000000000000     0          
C8       C      0.962470000000     0.698050000000     0.000000000000     0          
C9       C      0.826080000000     0.484560000000     0.000000000000     0          
C10      C      0.837150000000     0.450910000000     0.000000000000     0          
C11      C      0.877080000000     0.457100000000     0.000000000000     0          
H3       H      0.905020000000     0.487300000000     0.000000000000     0          
C12      C      0.978630000000     0.740600000000     0.000000000000     0          
H4       H      0.960080000000     0.755620000000     0.000000000000     0          
Zr3      Zr     0.750340000000     0.500680000000     0.000000000000     0          
S2       S      0.799350000000     0.399680000000     0.000000000000     0          
S3       S      0.000000000000     0.683900000000     0.000000000000     0          
Zr4      Zr     0.945620000000     0.518770000000     0.500000000000     0          
O11      O      0.950230000000     0.576360000000     0.500000000000     0          
O12      O      0.881290000000     0.481080000000     0.500000000000     0          
Zr5      Zr     0.787230000000     0.574460000000     0.877130000000     0          
O13      O      0.846050000000     0.692100000000     0.081770000000     0          
O14      O      0.730090000000     0.460180000000     0.081990000000     0          
O15      O      0.761200000000     0.522400000000     0.811770000000     0          
O16      O      0.812620000000     0.625240000000     0.805990000000     0          
Zr6      Zr     0.000000000000     0.500000000000     0.611510000000     0          
O17      O      0.000000000000     0.548120000000     0.559810000000     0          
O18      O      0.943900000000     0.471950000000     0.438520000000     0          
O7G      O      0.093230000000     0.719690000000     0.000000000000     0          
O8G      O      0.108140000000     0.787360000000     0.000000000000     0          
C7G      C      0.082400000000     0.747670000000     0.000000000000     0          
C8G      C      0.037530000000     0.735580000000     0.000000000000     0          
C12G     C      0.021370000000     0.761970000000     0.000000000000     0          
H4G      H      0.039920000000     0.795540000000     0.000000000000     0          
O10J     O      0.854980000000     0.331850000000     0.000000000000     0          
C9J      C      0.826080000000     0.341520000000     0.000000000000     0          
C10J     C      0.837150000000     0.386240000000     0.000000000000     0          
C11J     C      0.877080000000     0.419980000000     0.000000000000     0          
H3J      H      0.905020000000     0.417720000000     0.000000000000     0          
S1C      S      0.117520000000     0.441570000000     0.711340000000     0          
O1C      O      0.074080000000     0.468670000000     0.594000000000     0          
O2C      O      0.035630000000     0.479830000000     0.672480000000     0          
O3C      O      0.122290000000     0.421290000000     0.908510000000     0          
O4C      O      0.165750000000     0.425080000000     0.823490000000     0          
C1C      C      0.062080000000     0.468870000000     0.655450000000     0          
C2C      C      0.076590000000     0.450920000000     0.711380000000     0          
C3C      C      0.104860000000     0.424550000000     0.793570000000     0          
C4C      C      0.070870000000     0.425990000000     0.817960000000     0          
C5C      C      0.055200000000     0.441250000000     0.771810000000     0          
C6C      C      0.132370000000     0.423640000000     0.845700000000     0          
H1C      H      0.058600000000     0.417650000000     0.868680000000     0          
H2C      H      0.029240000000     0.445760000000     0.782790000000     0          
O17C     O      0.000000000000     0.451880000000     0.559810000000     0          
S1O      S      0.882480000000     0.558430000000     0.288660000000     0          
O1O      O      0.925920000000     0.531330000000     0.406000000000     0          
O2O      O      0.964370000000     0.520170000000     0.327520000000     0          
O3O      O      0.877710000000     0.578710000000     0.091490000000     0          
O4O      O      0.834250000000     0.574920000000     0.176510000000     0          
C1O      C      0.937920000000     0.531130000000     0.344550000000     0          
C2O      C      0.923410000000     0.549080000000     0.288620000000     0          
C3O      C      0.895140000000     0.575450000000     0.206430000000     0          
C4O      C      0.929130000000     0.574010000000     0.182040000000     0          
C5O      C      0.944800000000     0.558750000000     0.228190000000     0          
C6O      C      0.867630000000     0.576360000000     0.154300000000     0          
H1O      H      0.941400000000     0.582350000000     0.131320000000     0          
H2O      H      0.970760000000     0.554240000000     0.217210000000     0          
O5O      O      0.799700000000     0.535810000000     0.936880000000     0          
O6O      O      0.837520000000     0.614770000000     0.063520000000     0          
Zr5I     Zr     0.787230000000     0.574460000000     0.122870000000     0          
O15I     O      0.761200000000     0.522400000000     0.188230000000     0          
O16I     O      0.812620000000     0.625240000000     0.194010000000     0          
O18J     O      0.943900000000     0.471950000000     0.561480000000     0          
O13I     O      0.846050000000     0.692100000000     0.918230000000     0          
O14I     O      0.730090000000     0.460180000000     0.918010000000     0          
O5I      O      0.736110000000     0.535810000000     0.936880000000     0          
O6I      O      0.777250000000     0.614770000000     0.063520000000     0          
O2S      O      0.964370000000     0.444200000000     0.672480000000     0          
O2V      O      0.035630000000     0.555800000000     0.672480000000     0          
O4I      O      0.740670000000     0.574920000000     0.176510000000     0          
O4R      O      0.740670000000     0.574920000000     0.823490000000     0          
O5R      O      0.736110000000     0.535810000000     0.063120000000     0          
O6R      O      0.777250000000     0.614770000000     0.936480000000     0          
Zr1C     Zr     0.152220000000     0.424700000000     0.000000000000     0          
Zr1G     Zr     0.152220000000     0.727520000000     0.000000000000     0          
O9I      O      0.684950000000     0.471730000000     0.000000000000     0          
Zr2E     Zr     0.174940000000     0.825060000000     0.000000000000     0          
Zr4C     Zr     0.054380000000     0.481230000000     0.500000000000     0          
Zr4G     Zr     0.054380000000     0.573150000000     0.500000000000     0          
Zr4J     Zr     0.945620000000     0.426850000000     0.500000000000     0          
Zr5C     Zr     0.212770000000     0.425540000000     0.877130000000     0          
Zr6G     Zr     0.000000000000     0.500000000000     0.388490000000     0          
O17G     O      0.000000000000     0.548120000000     0.440190000000     0          
O18G     O      0.056100000000     0.528050000000     0.561480000000     0          
O5       O      0.263890000000     0.799700000000     0.063120000000     0          
O6       O      0.222750000000     0.837520000000     0.936480000000     0          
O7       O      0.280310000000     0.906770000000     0.000000000000     0          
O8       O      0.212640000000     0.891860000000     0.000000000000     0          
O9       O      0.315050000000     0.786780000000     0.000000000000     0          
O10      O      0.331850000000     0.854980000000     0.000000000000     0          
C7       C      0.252330000000     0.917600000000     0.000000000000     0          
C8       C      0.264420000000     0.962470000000     0.000000000000     0          
C9       C      0.341520000000     0.826080000000     0.000000000000     0          
C10      C      0.386240000000     0.837150000000     0.000000000000     0          
C11      C      0.419980000000     0.877080000000     0.000000000000     0          
H3       H      0.417720000000     0.905020000000     0.000000000000     0          
C12      C      0.238030000000     0.978630000000     0.000000000000     0          
H4       H      0.204460000000     0.960080000000     0.000000000000     0          
Zr3      Zr     0.249660000000     0.750340000000     0.000000000000     0          
S2       S      0.399670000000     0.799350000000     0.000000000000     0          
S3       S      0.316100000000     0.000000000000     0.000000000000     0          
O11      O      0.373870000000     0.950230000000     0.500000000000     0          
O12      O      0.400210000000     0.881290000000     0.500000000000     0          
O13      O      0.153950000000     0.846050000000     0.081770000000     0          
O14      O      0.269910000000     0.730090000000     0.081990000000     0          
O15      O      0.238800000000     0.761200000000     0.811770000000     0          
O16      O      0.187380000000     0.812620000000     0.805990000000     0          
O18      O      0.471950000000     0.943900000000     0.438520000000     0          
O7G      O      0.373540000000     0.093230000000     0.000000000000     0          
O8G      O      0.320780000000     0.108140000000     0.000000000000     0          
C7G      C      0.334730000000     0.082400000000     0.000000000000     0          
C8G      C      0.301950000000     0.037530000000     0.000000000000     0          
C12G     C      0.259400000000     0.021370000000     0.000000000000     0          
H4G      H      0.244380000000     0.039920000000     0.000000000000     0          
O10J     O      0.523130000000     0.854980000000     0.000000000000     0          
C9J      C      0.484560000000     0.826080000000     0.000000000000     0          
C10J     C      0.450910000000     0.837150000000     0.000000000000     0          
C11J     C      0.457100000000     0.877080000000     0.000000000000     0          
H3J      H      0.487300000000     0.905020000000     0.000000000000     0          
S1O      S      0.324050000000     0.882480000000     0.288660000000     0          
O1O      O      0.394590000000     0.925920000000     0.406000000000     0          
O2O      O      0.444200000000     0.964370000000     0.327520000000     0          
O3O      O      0.299000000000     0.877710000000     0.091490000000     0          
O4O      O      0.259330000000     0.834250000000     0.176510000000     0          
C1O      C      0.406790000000     0.937920000000     0.344550000000     0          
C2O      C      0.374330000000     0.923410000000     0.288620000000     0          
C3O      C      0.319690000000     0.895140000000     0.206430000000     0          
C4O      C      0.355120000000     0.929130000000     0.182040000000     0          
C5O      C      0.386050000000     0.944800000000     0.228190000000     0          
C6O      C      0.291270000000     0.867630000000     0.154300000000     0          
H1O      H      0.359050000000     0.941400000000     0.131320000000     0          
H2O      H      0.416520000000     0.970760000000     0.217210000000     0          
O5O      O      0.263890000000     0.799700000000     0.936880000000     0          
O6O      O      0.222750000000     0.837520000000     0.063520000000     0          
Zr5I     Zr     0.212770000000     0.787230000000     0.122870000000     0          
O15I     O      0.238800000000     0.761200000000     0.188230000000     0          
O16I     O      0.187380000000     0.812620000000     0.194010000000     0          
O13I     O      0.153950000000     0.846050000000     0.918230000000     0          
O14I     O      0.269910000000     0.730090000000     0.918010000000     0          
O5I      O      0.200300000000     0.736110000000     0.936880000000     0          
O6I      O      0.162480000000     0.777250000000     0.063520000000     0          
O4I      O      0.165750000000     0.740670000000     0.176510000000     0          
O4R      O      0.165750000000     0.740670000000     0.823490000000     0          
O5R      O      0.200300000000     0.736110000000     0.063120000000     0          
O6R      O      0.162480000000     0.777250000000     0.936480000000     0          
O9I      O      0.213220000000     0.684950000000     0.000000000000     0          
Zr2E     Zr     0.349880000000     0.174940000000     0.000000000000     0          
O17G     O      0.451880000000     0.000000000000     0.440190000000     0          
O5       O      0.464190000000     0.263890000000     0.063120000000     0          
O6       O      0.385230000000     0.222750000000     0.936480000000     0          
O7       O      0.373540000000     0.280310000000     0.000000000000     0          
O8       O      0.320780000000     0.212640000000     0.000000000000     0          
O9       O      0.528270000000     0.315050000000     0.000000000000     0          
O10      O      0.476870000000     0.331850000000     0.000000000000     0          
C7       C      0.334730000000     0.252330000000     0.000000000000     0          
C8       C      0.301950000000     0.264420000000     0.000000000000     0          
C9       C      0.515440000000     0.341520000000     0.000000000000     0          
C10      C      0.549090000000     0.386240000000     0.000000000000     0          
C11      C      0.542900000000     0.419980000000     0.000000000000     0          
H3       H      0.512700000000     0.417720000000     0.000000000000     0          
C12      C      0.259400000000     0.238030000000     0.000000000000     0          
H4       H      0.244380000000     0.204460000000     0.000000000000     0          
S2       S      0.600320000000     0.399670000000     0.000000000000     0          
S3       S      0.316100000000     0.316100000000     0.000000000000     0          
O11      O      0.423640000000     0.373870000000     0.500000000000     0          
O12      O      0.518920000000     0.400210000000     0.500000000000     0          
O13      O      0.307900000000     0.153950000000     0.081770000000     0          
O14      O      0.539820000000     0.269910000000     0.081990000000     0          
O15      O      0.477600000000     0.238800000000     0.811770000000     0          
O16      O      0.374760000000     0.187380000000     0.805990000000     0          
O18      O      0.528050000000     0.471950000000     0.438520000000     0          
O7G      O      0.280310000000     0.373540000000     0.000000000000     0          
O8G      O      0.212640000000     0.320780000000     0.000000000000     0          
C7G      C      0.252330000000     0.334730000000     0.000000000000     0          
C8G      C      0.264420000000     0.301950000000     0.000000000000     0          
C12G     C      0.238030000000     0.259400000000     0.000000000000     0          
H4G      H      0.204460000000     0.244380000000     0.000000000000     0          
O10J     O      0.668150000000     0.523130000000     0.000000000000     0          
C9J      C      0.658480000000     0.484560000000     0.000000000000     0          
C10J     C      0.613760000000     0.450910000000     0.000000000000     0          
C11J     C      0.580020000000     0.457100000000     0.000000000000     0          
H3J      H      0.582280000000     0.487300000000     0.000000000000     0          
S1O      S      0.441570000000     0.324050000000     0.288660000000     0          
O1O      O      0.468670000000     0.394590000000     0.406000000000     0          
O2O      O      0.479830000000     0.444200000000     0.327520000000     0          
O3O      O      0.421290000000     0.299000000000     0.091490000000     0          
O4O      O      0.425080000000     0.259330000000     0.176510000000     0          
C1O      C      0.468870000000     0.406790000000     0.344550000000     0          
C2O      C      0.450920000000     0.374330000000     0.288620000000     0          
C3O      C      0.424550000000     0.319690000000     0.206430000000     0          
C4O      C      0.425990000000     0.355120000000     0.182040000000     0          
C5O      C      0.441250000000     0.386050000000     0.228190000000     0          
C6O      C      0.423640000000     0.291270000000     0.154300000000     0          
H1O      H      0.417650000000     0.359050000000     0.131320000000     0          
H2O      H      0.445760000000     0.416520000000     0.217210000000     0          
O5O      O      0.464190000000     0.263890000000     0.936880000000     0          
O6O      O      0.385230000000     0.222750000000     0.063520000000     0          
Zr5I     Zr     0.425540000000     0.212770000000     0.122870000000     0          
O15I     O      0.477600000000     0.238800000000     0.188230000000     0          
O16I     O      0.374760000000     0.187380000000     0.194010000000     0          
O13I     O      0.307900000000     0.153950000000     0.918230000000     0          
O14I     O      0.539820000000     0.269910000000     0.918010000000     0          
O5I      O      0.464190000000     0.200300000000     0.936880000000     0          
O6I      O      0.385230000000     0.162480000000     0.063520000000     0          
O4I      O      0.425080000000     0.165750000000     0.176510000000     0          
O4R      O      0.425080000000     0.165750000000     0.823490000000     0          
O5R      O      0.464190000000     0.200300000000     0.063120000000     0          
O6R      O      0.385230000000     0.162480000000     0.936480000000     0          
Zr2E     Zr     0.174940000000     0.349880000000     0.000000000000     0          
O17G     O      0.451880000000     0.451880000000     0.440190000000     0          
O5       O      0.200300000000     0.464190000000     0.063120000000     0          
O6       O      0.162480000000     0.385230000000     0.936480000000     0          
O7       O      0.093230000000     0.373540000000     0.000000000000     0          
O8       O      0.108140000000     0.320780000000     0.000000000000     0          
O9       O      0.213220000000     0.528270000000     0.000000000000     0          
O10      O      0.145020000000     0.476870000000     0.000000000000     0          
C7       C      0.082400000000     0.334730000000     0.000000000000     0          
C8       C      0.037530000000     0.301950000000     0.000000000000     0          
C9       C      0.173920000000     0.515440000000     0.000000000000     0          
C10      C      0.162850000000     0.549090000000     0.000000000000     0          
C11      C      0.122920000000     0.542900000000     0.000000000000     0          
H3       H      0.094980000000     0.512700000000     0.000000000000     0          
C12      C      0.021370000000     0.259400000000     0.000000000000     0          
H4       H      0.039920000000     0.244380000000     0.000000000000     0          
S2       S      0.200650000000     0.600320000000     0.000000000000     0          
S3       S      0.000000000000     0.316100000000     0.000000000000     0          
O11      O      0.049770000000     0.423640000000     0.500000000000     0          
O12      O      0.118710000000     0.518920000000     0.500000000000     0          
O13      O      0.153950000000     0.307900000000     0.081770000000     0          
O14      O      0.269910000000     0.539820000000     0.081990000000     0          
O15      O      0.238800000000     0.477600000000     0.811770000000     0          
O16      O      0.187380000000     0.374760000000     0.805990000000     0          
O18      O      0.056100000000     0.528050000000     0.438520000000     0          
O7G      O      0.906770000000     0.280310000000     0.000000000000     0          
C7G      C      0.917600000000     0.252330000000     0.000000000000     0          
C8G      C      0.962470000000     0.264420000000     0.000000000000     0          
C12G     C      0.978630000000     0.238030000000     0.000000000000     0          
H4G      H      0.960080000000     0.204460000000     0.000000000000     0          
O10J     O      0.145020000000     0.668150000000     0.000000000000     0          
C9J      C      0.173920000000     0.658480000000     0.000000000000     0          
C10J     C      0.162850000000     0.613760000000     0.000000000000     0          
C11J     C      0.122920000000     0.580020000000     0.000000000000     0          
H3J      H      0.094980000000     0.582280000000     0.000000000000     0          
S1O      S      0.117520000000     0.441570000000     0.288660000000     0          
O1O      O      0.074080000000     0.468670000000     0.406000000000     0          
O2O      O      0.035630000000     0.479830000000     0.327520000000     0          
O3O      O      0.122290000000     0.421290000000     0.091490000000     0          
O4O      O      0.165750000000     0.425080000000     0.176510000000     0          
C1O      C      0.062080000000     0.468870000000     0.344550000000     0          
C2O      C      0.076590000000     0.450920000000     0.288620000000     0          
C3O      C      0.104860000000     0.424550000000     0.206430000000     0          
C4O      C      0.070870000000     0.425990000000     0.182040000000     0          
C5O      C      0.055200000000     0.441250000000     0.228190000000     0          
C6O      C      0.132370000000     0.423640000000     0.154300000000     0          
H1O      H      0.058600000000     0.417650000000     0.131320000000     0          
H2O      H      0.029240000000     0.445760000000     0.217210000000     0          
O5O      O      0.200300000000     0.464190000000     0.936880000000     0          
O6O      O      0.162480000000     0.385230000000     0.063520000000     0          
Zr5I     Zr     0.212770000000     0.425540000000     0.122870000000     0          
O15I     O      0.238800000000     0.477600000000     0.188230000000     0          
O16I     O      0.187380000000     0.374760000000     0.194010000000     0          
O13I     O      0.153950000000     0.307900000000     0.918230000000     0          
O14I     O      0.269910000000     0.539820000000     0.918010000000     0          
O5I      O      0.263890000000     0.464190000000     0.936880000000     0          
O6I      O      0.222750000000     0.385230000000     0.063520000000     0          
O4I      O      0.259330000000     0.425080000000     0.176510000000     0          
O4R      O      0.259330000000     0.425080000000     0.823490000000     0          
O5R      O      0.263890000000     0.464190000000     0.063120000000     0          
O6R      O      0.222750000000     0.385230000000     0.936480000000     0          
O17G     O      0.000000000000     0.451880000000     0.440190000000     0          
S1       S      0.882480000000     0.324050000000     0.288660000000     0          
O1       O      0.925920000000     0.394590000000     0.406000000000     0          
O2       O      0.964370000000     0.444200000000     0.327520000000     0          
O3       O      0.877710000000     0.299000000000     0.091490000000     0          
C1       C      0.937920000000     0.406790000000     0.344550000000     0          
C2       C      0.923410000000     0.374330000000     0.288620000000     0          
C3       C      0.895140000000     0.319690000000     0.206430000000     0          
C4       C      0.929130000000     0.355120000000     0.182040000000     0          
C5       C      0.944800000000     0.386050000000     0.228190000000     0          
C6       C      0.867630000000     0.291270000000     0.154300000000     0          
H1       H      0.941400000000     0.359050000000     0.131320000000     0          
H2       H      0.970760000000     0.416520000000     0.217210000000     0          
O11      O      0.950230000000     0.373870000000     0.500000000000     0          
O12      O      0.881290000000     0.400210000000     0.500000000000     0          
S1C      S      0.117520000000     0.675950000000     0.288660000000     0          
O1C      O      0.074080000000     0.605410000000     0.406000000000     0          
O2C      O      0.035630000000     0.555800000000     0.327520000000     0          
O3C      O      0.122290000000     0.701000000000     0.091490000000     0          
C1C      C      0.062080000000     0.593210000000     0.344550000000     0          
C2C      C      0.076590000000     0.625670000000     0.288620000000     0          
C3C      C      0.104860000000     0.680310000000     0.206430000000     0          
C4C      C      0.070870000000     0.644880000000     0.182040000000     0          
C5C      C      0.055200000000     0.613950000000     0.228190000000     0          
C6C      C      0.132370000000     0.708730000000     0.154300000000     0          
H1C      H      0.058600000000     0.640950000000     0.131320000000     0          
H2C      H      0.029240000000     0.583480000000     0.217210000000     0          
S1O      S      0.882480000000     0.324050000000     0.711340000000     0          
O1O      O      0.925920000000     0.394590000000     0.594000000000     0          
O3O      O      0.877710000000     0.299000000000     0.908510000000     0          
C1O      C      0.937920000000     0.406790000000     0.655450000000     0          
C2O      C      0.923410000000     0.374330000000     0.711380000000     0          
C3O      C      0.895140000000     0.319690000000     0.793570000000     0          
C4O      C      0.929130000000     0.355120000000     0.817960000000     0          
C5O      C      0.944800000000     0.386050000000     0.771810000000     0          
C6O      C      0.867630000000     0.291270000000     0.845700000000     0          
H1O      H      0.941400000000     0.359050000000     0.868680000000     0          
H2O      H      0.970760000000     0.416520000000     0.782790000000     0          
S1       S      0.558430000000     0.882480000000     0.288660000000     0          
O1       O      0.531330000000     0.925920000000     0.406000000000     0          
O2       O      0.520170000000     0.964370000000     0.327520000000     0          
O3       O      0.578710000000     0.877710000000     0.091490000000     0          
C1       C      0.531130000000     0.937920000000     0.344550000000     0          
C2       C      0.549080000000     0.923410000000     0.288620000000     0          
C3       C      0.575450000000     0.895140000000     0.206430000000     0          
C4       C      0.574010000000     0.929130000000     0.182040000000     0          
C5       C      0.558750000000     0.944800000000     0.228190000000     0          
C6       C      0.576360000000     0.867630000000     0.154300000000     0          
H1       H      0.582350000000     0.941400000000     0.131320000000     0          
H2       H      0.554240000000     0.970760000000     0.217210000000     0          
O11      O      0.576360000000     0.950230000000     0.500000000000     0          
O12      O      0.481080000000     0.881290000000     0.500000000000     0          
S1C      S      0.441570000000     0.117520000000     0.288660000000     0          
O1C      O      0.468670000000     0.074080000000     0.406000000000     0          
O2C      O      0.479830000000     0.035630000000     0.327520000000     0          
O3C      O      0.421290000000     0.122290000000     0.091490000000     0          
C1C      C      0.468870000000     0.062080000000     0.344550000000     0          
C2C      C      0.450920000000     0.076590000000     0.288620000000     0          
C3C      C      0.424550000000     0.104860000000     0.206430000000     0          
C4C      C      0.425990000000     0.070870000000     0.182040000000     0          
C5C      C      0.441250000000     0.055200000000     0.228190000000     0          
C6C      C      0.423640000000     0.132370000000     0.154300000000     0          
H1C      H      0.417650000000     0.058600000000     0.131320000000     0          
H2C      H      0.445760000000     0.029240000000     0.217210000000     0          
S1O      S      0.558430000000     0.882480000000     0.711340000000     0          
O1O      O      0.531330000000     0.925920000000     0.594000000000     0          
O3O      O      0.578710000000     0.877710000000     0.908510000000     0          
C1O      C      0.531130000000     0.937920000000     0.655450000000     0          
C2O      C      0.549080000000     0.923410000000     0.711380000000     0          
C3O      C      0.575450000000     0.895140000000     0.793570000000     0          
C4O      C      0.574010000000     0.929130000000     0.817960000000     0          
C5O      C      0.558750000000     0.944800000000     0.771810000000     0          
C6O      C      0.576360000000     0.867630000000     0.845700000000     0          
H1O      H      0.582350000000     0.941400000000     0.868680000000     0          
H2O      H      0.554240000000     0.970760000000     0.782790000000     0          
S1       S      0.675950000000     0.558430000000     0.288660000000     0          
O1       O      0.605410000000     0.531330000000     0.406000000000     0          
O2       O      0.555800000000     0.520170000000     0.327520000000     0          
O3       O      0.701000000000     0.578710000000     0.091490000000     0          
C1       C      0.593210000000     0.531130000000     0.344550000000     0          
C2       C      0.625670000000     0.549080000000     0.288620000000     0          
C3       C      0.680310000000     0.575450000000     0.206430000000     0          
C4       C      0.644880000000     0.574010000000     0.182040000000     0          
C5       C      0.613950000000     0.558750000000     0.228190000000     0          
C6       C      0.708730000000     0.576360000000     0.154300000000     0          
H1       H      0.640950000000     0.582350000000     0.131320000000     0          
H2       H      0.583480000000     0.554240000000     0.217210000000     0          
O11      O      0.626130000000     0.576360000000     0.500000000000     0          
O12      O      0.599790000000     0.481080000000     0.500000000000     0          
S1C      S      0.324050000000     0.441570000000     0.288660000000     0          
O1C      O      0.394590000000     0.468670000000     0.406000000000     0          
O2C      O      0.444200000000     0.479830000000     0.327520000000     0          
O3C      O      0.299000000000     0.421290000000     0.091490000000     0          
C1C      C      0.406790000000     0.468870000000     0.344550000000     0          
C2C      C      0.374330000000     0.450920000000     0.288620000000     0          
C3C      C      0.319690000000     0.424550000000     0.206430000000     0          
C4C      C      0.355120000000     0.425990000000     0.182040000000     0          
C5C      C      0.386050000000     0.441250000000     0.228190000000     0          
C6C      C      0.291270000000     0.423640000000     0.154300000000     0          
H1C      H      0.359050000000     0.417650000000     0.131320000000     0          
H2C      H      0.416520000000     0.445760000000     0.217210000000     0          
S1O      S      0.675950000000     0.558430000000     0.711340000000     0          
O1O      O      0.605410000000     0.531330000000     0.594000000000     0          
O3O      O      0.701000000000     0.578710000000     0.908510000000     0          
C1O      C      0.593210000000     0.531130000000     0.655450000000     0          
C2O      C      0.625670000000     0.549080000000     0.711380000000     0          
C3O      C      0.680310000000     0.575450000000     0.793570000000     0          
C4O      C      0.644880000000     0.574010000000     0.817960000000     0          
C5O      C      0.613950000000     0.558750000000     0.771810000000     0          
C6O      C      0.708730000000     0.576360000000     0.845700000000     0          
H1O      H      0.640950000000     0.582350000000     0.868680000000     0          
H2O      H      0.583480000000     0.554240000000     0.782790000000     0          
O11      O      0.049770000000     0.626130000000     0.500000000000     0          
O12      O      0.118710000000     0.599790000000     0.500000000000     0          
S1O      S      0.117520000000     0.675950000000     0.711340000000     0          
O1O      O      0.074080000000     0.605410000000     0.594000000000     0          
O3O      O      0.122290000000     0.701000000000     0.908510000000     0          
C1O      C      0.062080000000     0.593210000000     0.655450000000     0          
C2O      C      0.076590000000     0.625670000000     0.711380000000     0          
C3O      C      0.104860000000     0.680310000000     0.793570000000     0          
C4O      C      0.070870000000     0.644880000000     0.817960000000     0          
C5O      C      0.055200000000     0.613950000000     0.771810000000     0          
C6O      C      0.132370000000     0.708730000000     0.845700000000     0          
H1O      H      0.058600000000     0.640950000000     0.868680000000     0          
H2O      H      0.029240000000     0.583480000000     0.782790000000     0          
O11      O      0.423640000000     0.049770000000     0.500000000000     0          
O12      O      0.518920000000     0.118710000000     0.500000000000     0          
S1O      S      0.441570000000     0.117520000000     0.711340000000     0          
O1O      O      0.468670000000     0.074080000000     0.594000000000     0          
O3O      O      0.421290000000     0.122290000000     0.908510000000     0          
C1O      C      0.468870000000     0.062080000000     0.655450000000     0          
C2O      C      0.450920000000     0.076590000000     0.711380000000     0          
C3O      C      0.424550000000     0.104860000000     0.793570000000     0          
C4O      C      0.425990000000     0.070870000000     0.817960000000     0          
C5O      C      0.441250000000     0.055200000000     0.771810000000     0          
C6O      C      0.423640000000     0.132370000000     0.845700000000     0          
H1O      H      0.417650000000     0.058600000000     0.868680000000     0          
H2O      H      0.445760000000     0.029240000000     0.782790000000     0          
O11      O      0.373870000000     0.423640000000     0.500000000000     0          
O12      O      0.400210000000     0.518920000000     0.500000000000     0          
S1O      S      0.324050000000     0.441570000000     0.711340000000     0          
O1O      O      0.394590000000     0.468670000000     0.594000000000     0          
O3O      O      0.299000000000     0.421290000000     0.908510000000     0          
C1O      C      0.406790000000     0.468870000000     0.655450000000     0          
C2O      C      0.374330000000     0.450920000000     0.711380000000     0          
C3O      C      0.319690000000     0.424550000000     0.793570000000     0          
C4O      C      0.355120000000     0.425990000000     0.817960000000     0          
C5O      C      0.386050000000     0.441250000000     0.771810000000     0          
C6O      C      0.291270000000     0.423640000000     0.845700000000     0          
H1O      H      0.359050000000     0.417650000000     0.868680000000     0          
H2O      H      0.416520000000     0.445760000000     0.782790000000     0          


