data_SOQSAU01

_audit_creation_method RASPA-1.0
_audit_creation_date 2020-11-2
_audit_author_name 'Rocio Bueno-Perez'

_cell_length_a    26.07
_cell_length_b    26.07
_cell_length_c    26.07
_cell_angle_alpha 90
_cell_angle_beta  90
_cell_angle_gamma 90
_cell_volume      17718.3

_symmetry_cell_setting          cubic
_symmetry_space_group_name_Hall 'P 1'
_symmetry_space_group_name_H-M  'P 1'
_symmetry_Int_Tables_number     1

_symmetry_equiv_pos_as_xyz 'x,y,z'

loop_
_atom_site_label
_atom_site_type_symbol
_atom_site_fract_x
_atom_site_fract_y
_atom_site_fract_z
_atom_site_charge
Zr1      Zr     0.407910000000     0.015680000000     0.518680000000     0          
O1       O      0.455860000000     0.062350000000     0.471310000000     0          
O2       O      0.355240000000     0.035540000000     0.454530000000     0          
O3       O      0.405690000000     0.036560000000     0.382040000000     0          
O4       O      0.119480000000     0.992650000000     0.099600000000     0          
O6       O      0.048830000000     0.015790000000     0.146480000000     0          
O7       O      0.298440000000     0.010300000000     0.205900000000     0          
C1       C      0.362730000000     0.036990000000     0.405870000000     0          
C2       C      0.315120000000     0.039070000000     0.373390000000     0          
C3       C      0.267980000000     0.047300000000     0.396120000000     0          
H1       H      0.265900000000     0.052000000000     0.431400000000     0          
C4       C      0.223440000000     0.048600000000     0.366320000000     0          
H2       H      0.192100000000     0.057100000000     0.381100000000     0          
C5       C      0.226590000000     0.037400000000     0.315090000000     0          
C6       C      0.274210000000     0.028800000000     0.292490000000     0          
C7       C      0.318990000000     0.029700000000     0.321000000000     0          
H3       H      0.350700000000     0.024100000000     0.305600000000     0          
C8       C      0.266830000000     0.017800000000     0.236550000000     0          
C9       C      0.096550000000     0.007490000000     0.140380000000     0          
C10      C      0.210130000000     0.019700000000     0.228580000000     0          
C11      C      0.186620000000     0.032000000000     0.274850000000     0          
C12      C      0.134510000000     0.038100000000     0.277800000000     0          
H4       H      0.119000000000     0.049600000000     0.307800000000     0          
C13      C      0.128920000000     0.015450000000     0.187290000000     0          
C14      C      0.104990000000     0.026400000000     0.233940000000     0          
H5       H      0.069400000000     0.026000000000     0.236100000000     0          
C15      C      0.182000000000     0.011500000000     0.184270000000     0          
H6       H      0.198100000000     0.003600000000     0.153400000000     0          
O5       O      0.452830000000     0.952830000000     0.547170000000     0          
Zr1      Zr     0.092090000000     0.984320000000     0.018680000000     0          
O1       O      0.044140000000     0.937650000000     0.971310000000     0          
O2       O      0.144760000000     0.964460000000     0.954530000000     0          
O3       O      0.094310000000     0.963440000000     0.882040000000     0          
O4       O      0.380520000000     0.007350000000     0.599600000000     0          
O6       O      0.451170000000     0.984210000000     0.646480000000     0          
O7       O      0.201560000000     0.989700000000     0.705900000000     0          
C1       C      0.137270000000     0.963010000000     0.905870000000     0          
C2       C      0.184880000000     0.960930000000     0.873390000000     0          
C3       C      0.232020000000     0.952700000000     0.896120000000     0          
H1       H      0.234100000000     0.948000000000     0.931400000000     0          
C4       C      0.276560000000     0.951400000000     0.866320000000     0          
H2       H      0.307900000000     0.942900000000     0.881100000000     0          
C5       C      0.273410000000     0.962600000000     0.815090000000     0          
C6       C      0.225790000000     0.971200000000     0.792490000000     0          
C7       C      0.181010000000     0.970300000000     0.821000000000     0          
H3       H      0.149300000000     0.975900000000     0.805600000000     0          
C8       C      0.233170000000     0.982200000000     0.736550000000     0          
C9       C      0.403450000000     0.992510000000     0.640380000000     0          
C10      C      0.289870000000     0.980300000000     0.728580000000     0          
C11      C      0.313380000000     0.968000000000     0.774850000000     0          
C12      C      0.365490000000     0.961900000000     0.777800000000     0          
H4       H      0.381000000000     0.950400000000     0.807800000000     0          
C13      C      0.371080000000     0.984550000000     0.687290000000     0          
C14      C      0.395010000000     0.973600000000     0.733940000000     0          
H5       H      0.430600000000     0.974000000000     0.736100000000     0          
C15      C      0.318000000000     0.988500000000     0.684270000000     0          
H6       H      0.301900000000     0.996400000000     0.653400000000     0          
O5       O      0.047170000000     0.047170000000     0.047170000000     0          
Zr1      Zr     0.907910000000     0.484320000000     0.481320000000     0          
O1       O      0.955860000000     0.437650000000     0.528690000000     0          
O2       O      0.855240000000     0.464460000000     0.545470000000     0          
O3       O      0.905690000000     0.463440000000     0.617960000000     0          
O4       O      0.619480000000     0.507350000000     0.900400000000     0          
O6       O      0.548830000000     0.484210000000     0.853520000000     0          
O7       O      0.798440000000     0.489700000000     0.794100000000     0          
C1       C      0.862730000000     0.463010000000     0.594130000000     0          
C2       C      0.815120000000     0.460930000000     0.626610000000     0          
C3       C      0.767980000000     0.452700000000     0.603880000000     0          
H1       H      0.765900000000     0.448000000000     0.568600000000     0          
C4       C      0.723440000000     0.451400000000     0.633680000000     0          
H2       H      0.692100000000     0.442900000000     0.618900000000     0          
C5       C      0.726590000000     0.462600000000     0.684910000000     0          
C6       C      0.774210000000     0.471200000000     0.707510000000     0          
C7       C      0.818990000000     0.470300000000     0.679000000000     0          
H3       H      0.850700000000     0.475900000000     0.694400000000     0          
C8       C      0.766830000000     0.482200000000     0.763450000000     0          
C9       C      0.596550000000     0.492510000000     0.859620000000     0          
C10      C      0.710130000000     0.480300000000     0.771420000000     0          
C11      C      0.686620000000     0.468000000000     0.725150000000     0          
C12      C      0.634510000000     0.461900000000     0.722200000000     0          
H4       H      0.619000000000     0.450400000000     0.692200000000     0          
C13      C      0.628920000000     0.484550000000     0.812710000000     0          
C14      C      0.604990000000     0.473600000000     0.766060000000     0          
H5       H      0.569400000000     0.474000000000     0.763900000000     0          
C15      C      0.682000000000     0.488500000000     0.815730000000     0          
H6       H      0.698100000000     0.496400000000     0.846600000000     0          
O5       O      0.952830000000     0.547170000000     0.452830000000     0          
Zr1      Zr     0.592090000000     0.515680000000     0.981320000000     0          
O1       O      0.544140000000     0.562350000000     0.028690000000     0          
O2       O      0.644760000000     0.535540000000     0.045470000000     0          
O3       O      0.594310000000     0.536560000000     0.117960000000     0          
O4       O      0.880520000000     0.492650000000     0.400400000000     0          
O6       O      0.951170000000     0.515790000000     0.353520000000     0          
O7       O      0.701560000000     0.510300000000     0.294100000000     0          
C1       C      0.637270000000     0.536990000000     0.094130000000     0          
C2       C      0.684880000000     0.539070000000     0.126610000000     0          
C3       C      0.732020000000     0.547300000000     0.103880000000     0          
H1       H      0.734100000000     0.552000000000     0.068600000000     0          
C4       C      0.776560000000     0.548600000000     0.133680000000     0          
H2       H      0.807900000000     0.557100000000     0.118900000000     0          
C5       C      0.773410000000     0.537400000000     0.184910000000     0          
C6       C      0.725790000000     0.528800000000     0.207510000000     0          
C7       C      0.681010000000     0.529700000000     0.179000000000     0          
H3       H      0.649300000000     0.524100000000     0.194400000000     0          
C8       C      0.733170000000     0.517800000000     0.263450000000     0          
C9       C      0.903450000000     0.507490000000     0.359620000000     0          
C10      C      0.789870000000     0.519700000000     0.271420000000     0          
C11      C      0.813380000000     0.532000000000     0.225150000000     0          
C12      C      0.865490000000     0.538100000000     0.222200000000     0          
H4       H      0.881000000000     0.549600000000     0.192200000000     0          
C13      C      0.871080000000     0.515450000000     0.312710000000     0          
C14      C      0.895010000000     0.526400000000     0.266060000000     0          
H5       H      0.930600000000     0.526000000000     0.263900000000     0          
C15      C      0.818000000000     0.511500000000     0.315730000000     0          
H6       H      0.801900000000     0.503600000000     0.346600000000     0          
O5       O      0.547170000000     0.452830000000     0.952830000000     0          
Zr1      Zr     0.518680000000     0.407910000000     0.015680000000     0          
O1       O      0.471310000000     0.455860000000     0.062350000000     0          
O2       O      0.454530000000     0.355240000000     0.035540000000     0          
O3       O      0.382040000000     0.405690000000     0.036560000000     0          
O4       O      0.099600000000     0.119480000000     0.992650000000     0          
O6       O      0.146480000000     0.048830000000     0.015790000000     0          
O7       O      0.205900000000     0.298440000000     0.010300000000     0          
C1       C      0.405870000000     0.362730000000     0.036990000000     0          
C2       C      0.373390000000     0.315120000000     0.039070000000     0          
C3       C      0.396120000000     0.267980000000     0.047300000000     0          
H1       H      0.431400000000     0.265900000000     0.052000000000     0          
C4       C      0.366320000000     0.223440000000     0.048600000000     0          
H2       H      0.381100000000     0.192100000000     0.057100000000     0          
C5       C      0.315090000000     0.226590000000     0.037400000000     0          
C6       C      0.292490000000     0.274210000000     0.028800000000     0          
C7       C      0.321000000000     0.318990000000     0.029700000000     0          
H3       H      0.305600000000     0.350700000000     0.024100000000     0          
C8       C      0.236550000000     0.266830000000     0.017800000000     0          
C9       C      0.140380000000     0.096550000000     0.007490000000     0          
C10      C      0.228580000000     0.210130000000     0.019700000000     0          
C11      C      0.274850000000     0.186620000000     0.032000000000     0          
C12      C      0.277800000000     0.134510000000     0.038100000000     0          
H4       H      0.307800000000     0.119000000000     0.049600000000     0          
C13      C      0.187290000000     0.128920000000     0.015450000000     0          
C14      C      0.233940000000     0.104990000000     0.026400000000     0          
H5       H      0.236100000000     0.069400000000     0.026000000000     0          
C15      C      0.184270000000     0.182000000000     0.011500000000     0          
H6       H      0.153400000000     0.198100000000     0.003600000000     0          
Zr1      Zr     0.981320000000     0.592090000000     0.515680000000     0          
O1       O      0.028690000000     0.544140000000     0.562350000000     0          
O2       O      0.045470000000     0.644760000000     0.535540000000     0          
O3       O      0.117960000000     0.594310000000     0.536560000000     0          
O4       O      0.400400000000     0.880520000000     0.492650000000     0          
O6       O      0.353520000000     0.951170000000     0.515790000000     0          
O7       O      0.294100000000     0.701560000000     0.510300000000     0          
C1       C      0.094130000000     0.637270000000     0.536990000000     0          
C2       C      0.126610000000     0.684880000000     0.539070000000     0          
C3       C      0.103880000000     0.732020000000     0.547300000000     0          
H1       H      0.068600000000     0.734100000000     0.552000000000     0          
C4       C      0.133680000000     0.776560000000     0.548600000000     0          
H2       H      0.118900000000     0.807900000000     0.557100000000     0          
C5       C      0.184910000000     0.773410000000     0.537400000000     0          
C6       C      0.207510000000     0.725790000000     0.528800000000     0          
C7       C      0.179000000000     0.681010000000     0.529700000000     0          
H3       H      0.194400000000     0.649300000000     0.524100000000     0          
C8       C      0.263450000000     0.733170000000     0.517800000000     0          
C9       C      0.359620000000     0.903450000000     0.507490000000     0          
C10      C      0.271420000000     0.789870000000     0.519700000000     0          
C11      C      0.225150000000     0.813380000000     0.532000000000     0          
C12      C      0.222200000000     0.865490000000     0.538100000000     0          
H4       H      0.192200000000     0.881000000000     0.549600000000     0          
C13      C      0.312710000000     0.871080000000     0.515450000000     0          
C14      C      0.266060000000     0.895010000000     0.526400000000     0          
H5       H      0.263900000000     0.930600000000     0.526000000000     0          
C15      C      0.315730000000     0.818000000000     0.511500000000     0          
H6       H      0.346600000000     0.801900000000     0.503600000000     0          
Zr1      Zr     0.018680000000     0.092090000000     0.984320000000     0          
O1       O      0.971310000000     0.044140000000     0.937650000000     0          
O2       O      0.954530000000     0.144760000000     0.964460000000     0          
O3       O      0.882040000000     0.094310000000     0.963440000000     0          
O4       O      0.599600000000     0.380520000000     0.007350000000     0          
O6       O      0.646480000000     0.451170000000     0.984210000000     0          
O7       O      0.705900000000     0.201560000000     0.989700000000     0          
C1       C      0.905870000000     0.137270000000     0.963010000000     0          
C2       C      0.873390000000     0.184880000000     0.960930000000     0          
C3       C      0.896120000000     0.232020000000     0.952700000000     0          
H1       H      0.931400000000     0.234100000000     0.948000000000     0          
C4       C      0.866320000000     0.276560000000     0.951400000000     0          
H2       H      0.881100000000     0.307900000000     0.942900000000     0          
C5       C      0.815090000000     0.273410000000     0.962600000000     0          
C6       C      0.792490000000     0.225790000000     0.971200000000     0          
C7       C      0.821000000000     0.181010000000     0.970300000000     0          
H3       H      0.805600000000     0.149300000000     0.975900000000     0          
C8       C      0.736550000000     0.233170000000     0.982200000000     0          
C9       C      0.640380000000     0.403450000000     0.992510000000     0          
C10      C      0.728580000000     0.289870000000     0.980300000000     0          
C11      C      0.774850000000     0.313380000000     0.968000000000     0          
C12      C      0.777800000000     0.365490000000     0.961900000000     0          
H4       H      0.807800000000     0.381000000000     0.950400000000     0          
C13      C      0.687290000000     0.371080000000     0.984550000000     0          
C14      C      0.733940000000     0.395010000000     0.973600000000     0          
H5       H      0.736100000000     0.430600000000     0.974000000000     0          
C15      C      0.684270000000     0.318000000000     0.988500000000     0          
H6       H      0.653400000000     0.301900000000     0.996400000000     0          
Zr1      Zr     0.481320000000     0.907910000000     0.484320000000     0          
O1       O      0.528690000000     0.955860000000     0.437650000000     0          
O2       O      0.545470000000     0.855240000000     0.464460000000     0          
O3       O      0.617960000000     0.905690000000     0.463440000000     0          
O4       O      0.900400000000     0.619480000000     0.507350000000     0          
O6       O      0.853520000000     0.548830000000     0.484210000000     0          
O7       O      0.794100000000     0.798440000000     0.489700000000     0          
C1       C      0.594130000000     0.862730000000     0.463010000000     0          
C2       C      0.626610000000     0.815120000000     0.460930000000     0          
C3       C      0.603880000000     0.767980000000     0.452700000000     0          
H1       H      0.568600000000     0.765900000000     0.448000000000     0          
C4       C      0.633680000000     0.723440000000     0.451400000000     0          
H2       H      0.618900000000     0.692100000000     0.442900000000     0          
C5       C      0.684910000000     0.726590000000     0.462600000000     0          
C6       C      0.707510000000     0.774210000000     0.471200000000     0          
C7       C      0.679000000000     0.818990000000     0.470300000000     0          
H3       H      0.694400000000     0.850700000000     0.475900000000     0          
C8       C      0.763450000000     0.766830000000     0.482200000000     0          
C9       C      0.859620000000     0.596550000000     0.492510000000     0          
C10      C      0.771420000000     0.710130000000     0.480300000000     0          
C11      C      0.725150000000     0.686620000000     0.468000000000     0          
C12      C      0.722200000000     0.634510000000     0.461900000000     0          
H4       H      0.692200000000     0.619000000000     0.450400000000     0          
C13      C      0.812710000000     0.628920000000     0.484550000000     0          
C14      C      0.766060000000     0.604990000000     0.473600000000     0          
H5       H      0.763900000000     0.569400000000     0.474000000000     0          
C15      C      0.815730000000     0.682000000000     0.488500000000     0          
H6       H      0.846600000000     0.698100000000     0.496400000000     0          
Zr1      Zr     0.015680000000     0.518680000000     0.407910000000     0          
O1       O      0.062350000000     0.471310000000     0.455860000000     0          
O2       O      0.035540000000     0.454530000000     0.355240000000     0          
O3       O      0.036560000000     0.382040000000     0.405690000000     0          
O4       O      0.992650000000     0.099600000000     0.119480000000     0          
O6       O      0.015790000000     0.146480000000     0.048830000000     0          
O7       O      0.010300000000     0.205900000000     0.298440000000     0          
C1       C      0.036990000000     0.405870000000     0.362730000000     0          
C2       C      0.039070000000     0.373390000000     0.315120000000     0          
C3       C      0.047300000000     0.396120000000     0.267980000000     0          
H1       H      0.052000000000     0.431400000000     0.265900000000     0          
C4       C      0.048600000000     0.366320000000     0.223440000000     0          
H2       H      0.057100000000     0.381100000000     0.192100000000     0          
C5       C      0.037400000000     0.315090000000     0.226590000000     0          
C6       C      0.028800000000     0.292490000000     0.274210000000     0          
C7       C      0.029700000000     0.321000000000     0.318990000000     0          
H3       H      0.024100000000     0.305600000000     0.350700000000     0          
C8       C      0.017800000000     0.236550000000     0.266830000000     0          
C9       C      0.007490000000     0.140380000000     0.096550000000     0          
C10      C      0.019700000000     0.228580000000     0.210130000000     0          
C11      C      0.032000000000     0.274850000000     0.186620000000     0          
C12      C      0.038100000000     0.277800000000     0.134510000000     0          
H4       H      0.049600000000     0.307800000000     0.119000000000     0          
C13      C      0.015450000000     0.187290000000     0.128920000000     0          
C14      C      0.026400000000     0.233940000000     0.104990000000     0          
H5       H      0.026000000000     0.236100000000     0.069400000000     0          
C15      C      0.011500000000     0.184270000000     0.182000000000     0          
H6       H      0.003600000000     0.153400000000     0.198100000000     0          
Zr1      Zr     0.515680000000     0.981320000000     0.592090000000     0          
O1       O      0.562350000000     0.028690000000     0.544140000000     0          
O2       O      0.535540000000     0.045470000000     0.644760000000     0          
O3       O      0.536560000000     0.117960000000     0.594310000000     0          
O4       O      0.492650000000     0.400400000000     0.880520000000     0          
O6       O      0.515790000000     0.353520000000     0.951170000000     0          
O7       O      0.510300000000     0.294100000000     0.701560000000     0          
C1       C      0.536990000000     0.094130000000     0.637270000000     0          
C2       C      0.539070000000     0.126610000000     0.684880000000     0          
C3       C      0.547300000000     0.103880000000     0.732020000000     0          
H1       H      0.552000000000     0.068600000000     0.734100000000     0          
C4       C      0.548600000000     0.133680000000     0.776560000000     0          
H2       H      0.557100000000     0.118900000000     0.807900000000     0          
C5       C      0.537400000000     0.184910000000     0.773410000000     0          
C6       C      0.528800000000     0.207510000000     0.725790000000     0          
C7       C      0.529700000000     0.179000000000     0.681010000000     0          
H3       H      0.524100000000     0.194400000000     0.649300000000     0          
C8       C      0.517800000000     0.263450000000     0.733170000000     0          
C9       C      0.507490000000     0.359620000000     0.903450000000     0          
C10      C      0.519700000000     0.271420000000     0.789870000000     0          
C11      C      0.532000000000     0.225150000000     0.813380000000     0          
C12      C      0.538100000000     0.222200000000     0.865490000000     0          
H4       H      0.549600000000     0.192200000000     0.881000000000     0          
C13      C      0.515450000000     0.312710000000     0.871080000000     0          
C14      C      0.526400000000     0.266060000000     0.895010000000     0          
H5       H      0.526000000000     0.263900000000     0.930600000000     0          
C15      C      0.511500000000     0.315730000000     0.818000000000     0          
H6       H      0.503600000000     0.346600000000     0.801900000000     0          
Zr1      Zr     0.984320000000     0.018680000000     0.092090000000     0          
O1       O      0.937650000000     0.971310000000     0.044140000000     0          
O2       O      0.964460000000     0.954530000000     0.144760000000     0          
O3       O      0.963440000000     0.882040000000     0.094310000000     0          
O4       O      0.007350000000     0.599600000000     0.380520000000     0          
O6       O      0.984210000000     0.646480000000     0.451170000000     0          
O7       O      0.989700000000     0.705900000000     0.201560000000     0          
C1       C      0.963010000000     0.905870000000     0.137270000000     0          
C2       C      0.960930000000     0.873390000000     0.184880000000     0          
C3       C      0.952700000000     0.896120000000     0.232020000000     0          
H1       H      0.948000000000     0.931400000000     0.234100000000     0          
C4       C      0.951400000000     0.866320000000     0.276560000000     0          
H2       H      0.942900000000     0.881100000000     0.307900000000     0          
C5       C      0.962600000000     0.815090000000     0.273410000000     0          
C6       C      0.971200000000     0.792490000000     0.225790000000     0          
C7       C      0.970300000000     0.821000000000     0.181010000000     0          
H3       H      0.975900000000     0.805600000000     0.149300000000     0          
C8       C      0.982200000000     0.736550000000     0.233170000000     0          
C9       C      0.992510000000     0.640380000000     0.403450000000     0          
C10      C      0.980300000000     0.728580000000     0.289870000000     0          
C11      C      0.968000000000     0.774850000000     0.313380000000     0          
C12      C      0.961900000000     0.777800000000     0.365490000000     0          
H4       H      0.950400000000     0.807800000000     0.381000000000     0          
C13      C      0.984550000000     0.687290000000     0.371080000000     0          
C14      C      0.973600000000     0.733940000000     0.395010000000     0          
H5       H      0.974000000000     0.736100000000     0.430600000000     0          
C15      C      0.988500000000     0.684270000000     0.318000000000     0          
H6       H      0.996400000000     0.653400000000     0.301900000000     0          
Zr1      Zr     0.484320000000     0.481320000000     0.907910000000     0          
O1       O      0.437650000000     0.528690000000     0.955860000000     0          
O2       O      0.464460000000     0.545470000000     0.855240000000     0          
O3       O      0.463440000000     0.617960000000     0.905690000000     0          
O4       O      0.507350000000     0.900400000000     0.619480000000     0          
O6       O      0.484210000000     0.853520000000     0.548830000000     0          
O7       O      0.489700000000     0.794100000000     0.798440000000     0          
C1       C      0.463010000000     0.594130000000     0.862730000000     0          
C2       C      0.460930000000     0.626610000000     0.815120000000     0          
C3       C      0.452700000000     0.603880000000     0.767980000000     0          
H1       H      0.448000000000     0.568600000000     0.765900000000     0          
C4       C      0.451400000000     0.633680000000     0.723440000000     0          
H2       H      0.442900000000     0.618900000000     0.692100000000     0          
C5       C      0.462600000000     0.684910000000     0.726590000000     0          
C6       C      0.471200000000     0.707510000000     0.774210000000     0          
C7       C      0.470300000000     0.679000000000     0.818990000000     0          
H3       H      0.475900000000     0.694400000000     0.850700000000     0          
C8       C      0.482200000000     0.763450000000     0.766830000000     0          
C9       C      0.492510000000     0.859620000000     0.596550000000     0          
C10      C      0.480300000000     0.771420000000     0.710130000000     0          
C11      C      0.468000000000     0.725150000000     0.686620000000     0          
C12      C      0.461900000000     0.722200000000     0.634510000000     0          
H4       H      0.450400000000     0.692200000000     0.619000000000     0          
C13      C      0.484550000000     0.812710000000     0.628920000000     0          
C14      C      0.473600000000     0.766060000000     0.604990000000     0          
H5       H      0.474000000000     0.763900000000     0.569400000000     0          
C15      C      0.488500000000     0.815730000000     0.682000000000     0          
H6       H      0.496400000000     0.846600000000     0.698100000000     0          
Zr1      Zr     0.592090000000     0.984320000000     0.481320000000     0          
O1       O      0.544140000000     0.937650000000     0.528690000000     0          
O2       O      0.644760000000     0.964460000000     0.545470000000     0          
O3       O      0.594310000000     0.963440000000     0.617960000000     0          
O4       O      0.880520000000     0.007350000000     0.900400000000     0          
O6       O      0.951170000000     0.984210000000     0.853520000000     0          
O7       O      0.701560000000     0.989700000000     0.794100000000     0          
C1       C      0.637270000000     0.963010000000     0.594130000000     0          
C2       C      0.684880000000     0.960930000000     0.626610000000     0          
C3       C      0.732020000000     0.952700000000     0.603880000000     0          
H1       H      0.734100000000     0.948000000000     0.568600000000     0          
C4       C      0.776560000000     0.951400000000     0.633680000000     0          
H2       H      0.807900000000     0.942900000000     0.618900000000     0          
C5       C      0.773410000000     0.962600000000     0.684910000000     0          
C6       C      0.725790000000     0.971200000000     0.707510000000     0          
C7       C      0.681010000000     0.970300000000     0.679000000000     0          
H3       H      0.649300000000     0.975900000000     0.694400000000     0          
C8       C      0.733170000000     0.982200000000     0.763450000000     0          
C9       C      0.903450000000     0.992510000000     0.859620000000     0          
C10      C      0.789870000000     0.980300000000     0.771420000000     0          
C11      C      0.813380000000     0.968000000000     0.725150000000     0          
C12      C      0.865490000000     0.961900000000     0.722200000000     0          
H4       H      0.881000000000     0.950400000000     0.692200000000     0          
C13      C      0.871080000000     0.984550000000     0.812710000000     0          
C14      C      0.895010000000     0.973600000000     0.766060000000     0          
H5       H      0.930600000000     0.974000000000     0.763900000000     0          
C15      C      0.818000000000     0.988500000000     0.815730000000     0          
H6       H      0.801900000000     0.996400000000     0.846600000000     0          
O5       O      0.547170000000     0.047170000000     0.452830000000     0          
Zr1      Zr     0.907910000000     0.015680000000     0.981320000000     0          
O1       O      0.955860000000     0.062350000000     0.028690000000     0          
O2       O      0.855240000000     0.035540000000     0.045470000000     0          
O3       O      0.905690000000     0.036560000000     0.117960000000     0          
O4       O      0.619480000000     0.992650000000     0.400400000000     0          
O6       O      0.548830000000     0.015790000000     0.353520000000     0          
O7       O      0.798440000000     0.010300000000     0.294100000000     0          
C1       C      0.862730000000     0.036990000000     0.094130000000     0          
C2       C      0.815120000000     0.039070000000     0.126610000000     0          
C3       C      0.767980000000     0.047300000000     0.103880000000     0          
H1       H      0.765900000000     0.052000000000     0.068600000000     0          
C4       C      0.723440000000     0.048600000000     0.133680000000     0          
H2       H      0.692100000000     0.057100000000     0.118900000000     0          
C5       C      0.726590000000     0.037400000000     0.184910000000     0          
C6       C      0.774210000000     0.028800000000     0.207510000000     0          
C7       C      0.818990000000     0.029700000000     0.179000000000     0          
H3       H      0.850700000000     0.024100000000     0.194400000000     0          
C8       C      0.766830000000     0.017800000000     0.263450000000     0          
C9       C      0.596550000000     0.007490000000     0.359620000000     0          
C10      C      0.710130000000     0.019700000000     0.271420000000     0          
C11      C      0.686620000000     0.032000000000     0.225150000000     0          
C12      C      0.634510000000     0.038100000000     0.222200000000     0          
H4       H      0.619000000000     0.049600000000     0.192200000000     0          
C13      C      0.628920000000     0.015450000000     0.312710000000     0          
C14      C      0.604990000000     0.026400000000     0.266060000000     0          
H5       H      0.569400000000     0.026000000000     0.263900000000     0          
C15      C      0.682000000000     0.011500000000     0.315730000000     0          
H6       H      0.698100000000     0.003600000000     0.346600000000     0          
O5       O      0.952830000000     0.952830000000     0.952830000000     0          
Zr1      Zr     0.092090000000     0.515680000000     0.518680000000     0          
O1       O      0.044140000000     0.562350000000     0.471310000000     0          
O2       O      0.144760000000     0.535540000000     0.454530000000     0          
O3       O      0.094310000000     0.536560000000     0.382040000000     0          
O4       O      0.380520000000     0.492650000000     0.099600000000     0          
O6       O      0.451170000000     0.515790000000     0.146480000000     0          
O7       O      0.201560000000     0.510300000000     0.205900000000     0          
C1       C      0.137270000000     0.536990000000     0.405870000000     0          
C2       C      0.184880000000     0.539070000000     0.373390000000     0          
C3       C      0.232020000000     0.547300000000     0.396120000000     0          
H1       H      0.234100000000     0.552000000000     0.431400000000     0          
C4       C      0.276560000000     0.548600000000     0.366320000000     0          
H2       H      0.307900000000     0.557100000000     0.381100000000     0          
C5       C      0.273410000000     0.537400000000     0.315090000000     0          
C6       C      0.225790000000     0.528800000000     0.292490000000     0          
C7       C      0.181010000000     0.529700000000     0.321000000000     0          
H3       H      0.149300000000     0.524100000000     0.305600000000     0          
C8       C      0.233170000000     0.517800000000     0.236550000000     0          
C9       C      0.403450000000     0.507490000000     0.140380000000     0          
C10      C      0.289870000000     0.519700000000     0.228580000000     0          
C11      C      0.313380000000     0.532000000000     0.274850000000     0          
C12      C      0.365490000000     0.538100000000     0.277800000000     0          
H4       H      0.381000000000     0.549600000000     0.307800000000     0          
C13      C      0.371080000000     0.515450000000     0.187290000000     0          
C14      C      0.395010000000     0.526400000000     0.233940000000     0          
H5       H      0.430600000000     0.526000000000     0.236100000000     0          
C15      C      0.318000000000     0.511500000000     0.184270000000     0          
H6       H      0.301900000000     0.503600000000     0.153400000000     0          
O5       O      0.047170000000     0.452830000000     0.547170000000     0          
Zr1      Zr     0.407910000000     0.484320000000     0.018680000000     0          
O1       O      0.455860000000     0.437650000000     0.971310000000     0          
O2       O      0.355240000000     0.464460000000     0.954530000000     0          
O3       O      0.405690000000     0.463440000000     0.882040000000     0          
O4       O      0.119480000000     0.507350000000     0.599600000000     0          
O6       O      0.048830000000     0.484210000000     0.646480000000     0          
O7       O      0.298440000000     0.489700000000     0.705900000000     0          
C1       C      0.362730000000     0.463010000000     0.905870000000     0          
C2       C      0.315120000000     0.460930000000     0.873390000000     0          
C3       C      0.267980000000     0.452700000000     0.896120000000     0          
H1       H      0.265900000000     0.448000000000     0.931400000000     0          
C4       C      0.223440000000     0.451400000000     0.866320000000     0          
H2       H      0.192100000000     0.442900000000     0.881100000000     0          
C5       C      0.226590000000     0.462600000000     0.815090000000     0          
C6       C      0.274210000000     0.471200000000     0.792490000000     0          
C7       C      0.318990000000     0.470300000000     0.821000000000     0          
H3       H      0.350700000000     0.475900000000     0.805600000000     0          
C8       C      0.266830000000     0.482200000000     0.736550000000     0          
C9       C      0.096550000000     0.492510000000     0.640380000000     0          
C10      C      0.210130000000     0.480300000000     0.728580000000     0          
C11      C      0.186620000000     0.468000000000     0.774850000000     0          
C12      C      0.134510000000     0.461900000000     0.777800000000     0          
H4       H      0.119000000000     0.450400000000     0.807800000000     0          
C13      C      0.128920000000     0.484550000000     0.687290000000     0          
C14      C      0.104990000000     0.473600000000     0.733940000000     0          
H5       H      0.069400000000     0.474000000000     0.736100000000     0          
C15      C      0.182000000000     0.488500000000     0.684270000000     0          
H6       H      0.198100000000     0.496400000000     0.653400000000     0          
O5       O      0.452830000000     0.547170000000     0.047170000000     0          
Zr1      Zr     0.481320000000     0.592090000000     0.984320000000     0          
O1       O      0.528690000000     0.544140000000     0.937650000000     0          
O2       O      0.545470000000     0.644760000000     0.964460000000     0          
O3       O      0.617960000000     0.594310000000     0.963440000000     0          
O4       O      0.900400000000     0.880520000000     0.007350000000     0          
O6       O      0.853520000000     0.951170000000     0.984210000000     0          
O7       O      0.794100000000     0.701560000000     0.989700000000     0          
C1       C      0.594130000000     0.637270000000     0.963010000000     0          
C2       C      0.626610000000     0.684880000000     0.960930000000     0          
C3       C      0.603880000000     0.732020000000     0.952700000000     0          
H1       H      0.568600000000     0.734100000000     0.948000000000     0          
C4       C      0.633680000000     0.776560000000     0.951400000000     0          
H2       H      0.618900000000     0.807900000000     0.942900000000     0          
C5       C      0.684910000000     0.773410000000     0.962600000000     0          
C6       C      0.707510000000     0.725790000000     0.971200000000     0          
C7       C      0.679000000000     0.681010000000     0.970300000000     0          
H3       H      0.694400000000     0.649300000000     0.975900000000     0          
C8       C      0.763450000000     0.733170000000     0.982200000000     0          
C9       C      0.859620000000     0.903450000000     0.992510000000     0          
C10      C      0.771420000000     0.789870000000     0.980300000000     0          
C11      C      0.725150000000     0.813380000000     0.968000000000     0          
C12      C      0.722200000000     0.865490000000     0.961900000000     0          
H4       H      0.692200000000     0.881000000000     0.950400000000     0          
C13      C      0.812710000000     0.871080000000     0.984550000000     0          
C14      C      0.766060000000     0.895010000000     0.973600000000     0          
H5       H      0.763900000000     0.930600000000     0.974000000000     0          
C15      C      0.815730000000     0.818000000000     0.988500000000     0          
H6       H      0.846600000000     0.801900000000     0.996400000000     0          
Zr1      Zr     0.018680000000     0.407910000000     0.484320000000     0          
O1       O      0.971310000000     0.455860000000     0.437650000000     0          
O2       O      0.954530000000     0.355240000000     0.464460000000     0          
O3       O      0.882040000000     0.405690000000     0.463440000000     0          
O4       O      0.599600000000     0.119480000000     0.507350000000     0          
O6       O      0.646480000000     0.048830000000     0.484210000000     0          
O7       O      0.705900000000     0.298440000000     0.489700000000     0          
C1       C      0.905870000000     0.362730000000     0.463010000000     0          
C2       C      0.873390000000     0.315120000000     0.460930000000     0          
C3       C      0.896120000000     0.267980000000     0.452700000000     0          
H1       H      0.931400000000     0.265900000000     0.448000000000     0          
C4       C      0.866320000000     0.223440000000     0.451400000000     0          
H2       H      0.881100000000     0.192100000000     0.442900000000     0          
C5       C      0.815090000000     0.226590000000     0.462600000000     0          
C6       C      0.792490000000     0.274210000000     0.471200000000     0          
C7       C      0.821000000000     0.318990000000     0.470300000000     0          
H3       H      0.805600000000     0.350700000000     0.475900000000     0          
C8       C      0.736550000000     0.266830000000     0.482200000000     0          
C9       C      0.640380000000     0.096550000000     0.492510000000     0          
C10      C      0.728580000000     0.210130000000     0.480300000000     0          
C11      C      0.774850000000     0.186620000000     0.468000000000     0          
C12      C      0.777800000000     0.134510000000     0.461900000000     0          
H4       H      0.807800000000     0.119000000000     0.450400000000     0          
C13      C      0.687290000000     0.128920000000     0.484550000000     0          
C14      C      0.733940000000     0.104990000000     0.473600000000     0          
H5       H      0.736100000000     0.069400000000     0.474000000000     0          
C15      C      0.684270000000     0.182000000000     0.488500000000     0          
H6       H      0.653400000000     0.198100000000     0.496400000000     0          
Zr1      Zr     0.981320000000     0.907910000000     0.015680000000     0          
O1       O      0.028690000000     0.955860000000     0.062350000000     0          
O2       O      0.045470000000     0.855240000000     0.035540000000     0          
O3       O      0.117960000000     0.905690000000     0.036560000000     0          
O4       O      0.400400000000     0.619480000000     0.992650000000     0          
O6       O      0.353520000000     0.548830000000     0.015790000000     0          
O7       O      0.294100000000     0.798440000000     0.010300000000     0          
C1       C      0.094130000000     0.862730000000     0.036990000000     0          
C2       C      0.126610000000     0.815120000000     0.039070000000     0          
C3       C      0.103880000000     0.767980000000     0.047300000000     0          
H1       H      0.068600000000     0.765900000000     0.052000000000     0          
C4       C      0.133680000000     0.723440000000     0.048600000000     0          
H2       H      0.118900000000     0.692100000000     0.057100000000     0          
C5       C      0.184910000000     0.726590000000     0.037400000000     0          
C6       C      0.207510000000     0.774210000000     0.028800000000     0          
C7       C      0.179000000000     0.818990000000     0.029700000000     0          
H3       H      0.194400000000     0.850700000000     0.024100000000     0          
C8       C      0.263450000000     0.766830000000     0.017800000000     0          
C9       C      0.359620000000     0.596550000000     0.007490000000     0          
C10      C      0.271420000000     0.710130000000     0.019700000000     0          
C11      C      0.225150000000     0.686620000000     0.032000000000     0          
C12      C      0.222200000000     0.634510000000     0.038100000000     0          
H4       H      0.192200000000     0.619000000000     0.049600000000     0          
C13      C      0.312710000000     0.628920000000     0.015450000000     0          
C14      C      0.266060000000     0.604990000000     0.026400000000     0          
H5       H      0.263900000000     0.569400000000     0.026000000000     0          
C15      C      0.315730000000     0.682000000000     0.011500000000     0          
H6       H      0.346600000000     0.698100000000     0.003600000000     0          
Zr1      Zr     0.518680000000     0.092090000000     0.515680000000     0          
O1       O      0.471310000000     0.044140000000     0.562350000000     0          
O2       O      0.454530000000     0.144760000000     0.535540000000     0          
O3       O      0.382040000000     0.094310000000     0.536560000000     0          
O4       O      0.099600000000     0.380520000000     0.492650000000     0          
O6       O      0.146480000000     0.451170000000     0.515790000000     0          
O7       O      0.205900000000     0.201560000000     0.510300000000     0          
C1       C      0.405870000000     0.137270000000     0.536990000000     0          
C2       C      0.373390000000     0.184880000000     0.539070000000     0          
C3       C      0.396120000000     0.232020000000     0.547300000000     0          
H1       H      0.431400000000     0.234100000000     0.552000000000     0          
C4       C      0.366320000000     0.276560000000     0.548600000000     0          
H2       H      0.381100000000     0.307900000000     0.557100000000     0          
C5       C      0.315090000000     0.273410000000     0.537400000000     0          
C6       C      0.292490000000     0.225790000000     0.528800000000     0          
C7       C      0.321000000000     0.181010000000     0.529700000000     0          
H3       H      0.305600000000     0.149300000000     0.524100000000     0          
C8       C      0.236550000000     0.233170000000     0.517800000000     0          
C9       C      0.140380000000     0.403450000000     0.507490000000     0          
C10      C      0.228580000000     0.289870000000     0.519700000000     0          
C11      C      0.274850000000     0.313380000000     0.532000000000     0          
C12      C      0.277800000000     0.365490000000     0.538100000000     0          
H4       H      0.307800000000     0.381000000000     0.549600000000     0          
C13      C      0.187290000000     0.371080000000     0.515450000000     0          
C14      C      0.233940000000     0.395010000000     0.526400000000     0          
H5       H      0.236100000000     0.430600000000     0.526000000000     0          
C15      C      0.184270000000     0.318000000000     0.511500000000     0          
H6       H      0.153400000000     0.301900000000     0.503600000000     0          
Zr1      Zr     0.984320000000     0.481320000000     0.592090000000     0          
O1       O      0.937650000000     0.528690000000     0.544140000000     0          
O2       O      0.964460000000     0.545470000000     0.644760000000     0          
O3       O      0.963440000000     0.617960000000     0.594310000000     0          
O4       O      0.007350000000     0.900400000000     0.880520000000     0          
O6       O      0.984210000000     0.853520000000     0.951170000000     0          
O7       O      0.989700000000     0.794100000000     0.701560000000     0          
C1       C      0.963010000000     0.594130000000     0.637270000000     0          
C2       C      0.960930000000     0.626610000000     0.684880000000     0          
C3       C      0.952700000000     0.603880000000     0.732020000000     0          
H1       H      0.948000000000     0.568600000000     0.734100000000     0          
C4       C      0.951400000000     0.633680000000     0.776560000000     0          
H2       H      0.942900000000     0.618900000000     0.807900000000     0          
C5       C      0.962600000000     0.684910000000     0.773410000000     0          
C6       C      0.971200000000     0.707510000000     0.725790000000     0          
C7       C      0.970300000000     0.679000000000     0.681010000000     0          
H3       H      0.975900000000     0.694400000000     0.649300000000     0          
C8       C      0.982200000000     0.763450000000     0.733170000000     0          
C9       C      0.992510000000     0.859620000000     0.903450000000     0          
C10      C      0.980300000000     0.771420000000     0.789870000000     0          
C11      C      0.968000000000     0.725150000000     0.813380000000     0          
C12      C      0.961900000000     0.722200000000     0.865490000000     0          
H4       H      0.950400000000     0.692200000000     0.881000000000     0          
C13      C      0.984550000000     0.812710000000     0.871080000000     0          
C14      C      0.973600000000     0.766060000000     0.895010000000     0          
H5       H      0.974000000000     0.763900000000     0.930600000000     0          
C15      C      0.988500000000     0.815730000000     0.818000000000     0          
H6       H      0.996400000000     0.846600000000     0.801900000000     0          
Zr1      Zr     0.484320000000     0.018680000000     0.407910000000     0          
O1       O      0.437650000000     0.971310000000     0.455860000000     0          
O2       O      0.464460000000     0.954530000000     0.355240000000     0          
O3       O      0.463440000000     0.882040000000     0.405690000000     0          
O4       O      0.507350000000     0.599600000000     0.119480000000     0          
O6       O      0.484210000000     0.646480000000     0.048830000000     0          
O7       O      0.489700000000     0.705900000000     0.298440000000     0          
C1       C      0.463010000000     0.905870000000     0.362730000000     0          
C2       C      0.460930000000     0.873390000000     0.315120000000     0          
C3       C      0.452700000000     0.896120000000     0.267980000000     0          
H1       H      0.448000000000     0.931400000000     0.265900000000     0          
C4       C      0.451400000000     0.866320000000     0.223440000000     0          
H2       H      0.442900000000     0.881100000000     0.192100000000     0          
C5       C      0.462600000000     0.815090000000     0.226590000000     0          
C6       C      0.471200000000     0.792490000000     0.274210000000     0          
C7       C      0.470300000000     0.821000000000     0.318990000000     0          
H3       H      0.475900000000     0.805600000000     0.350700000000     0          
C8       C      0.482200000000     0.736550000000     0.266830000000     0          
C9       C      0.492510000000     0.640380000000     0.096550000000     0          
C10      C      0.480300000000     0.728580000000     0.210130000000     0          
C11      C      0.468000000000     0.774850000000     0.186620000000     0          
C12      C      0.461900000000     0.777800000000     0.134510000000     0          
H4       H      0.450400000000     0.807800000000     0.119000000000     0          
C13      C      0.484550000000     0.687290000000     0.128920000000     0          
C14      C      0.473600000000     0.733940000000     0.104990000000     0          
H5       H      0.474000000000     0.736100000000     0.069400000000     0          
C15      C      0.488500000000     0.684270000000     0.182000000000     0          
H6       H      0.496400000000     0.653400000000     0.198100000000     0          
Zr1      Zr     0.015680000000     0.981320000000     0.907910000000     0          
O1       O      0.062350000000     0.028690000000     0.955860000000     0          
O2       O      0.035540000000     0.045470000000     0.855240000000     0          
O3       O      0.036560000000     0.117960000000     0.905690000000     0          
O4       O      0.992650000000     0.400400000000     0.619480000000     0          
O6       O      0.015790000000     0.353520000000     0.548830000000     0          
O7       O      0.010300000000     0.294100000000     0.798440000000     0          
C1       C      0.036990000000     0.094130000000     0.862730000000     0          
C2       C      0.039070000000     0.126610000000     0.815120000000     0          
C3       C      0.047300000000     0.103880000000     0.767980000000     0          
H1       H      0.052000000000     0.068600000000     0.765900000000     0          
C4       C      0.048600000000     0.133680000000     0.723440000000     0          
H2       H      0.057100000000     0.118900000000     0.692100000000     0          
C5       C      0.037400000000     0.184910000000     0.726590000000     0          
C6       C      0.028800000000     0.207510000000     0.774210000000     0          
C7       C      0.029700000000     0.179000000000     0.818990000000     0          
H3       H      0.024100000000     0.194400000000     0.850700000000     0          
C8       C      0.017800000000     0.263450000000     0.766830000000     0          
C9       C      0.007490000000     0.359620000000     0.596550000000     0          
C10      C      0.019700000000     0.271420000000     0.710130000000     0          
C11      C      0.032000000000     0.225150000000     0.686620000000     0          
C12      C      0.038100000000     0.222200000000     0.634510000000     0          
H4       H      0.049600000000     0.192200000000     0.619000000000     0          
C13      C      0.015450000000     0.312710000000     0.628920000000     0          
C14      C      0.026400000000     0.266060000000     0.604990000000     0          
H5       H      0.026000000000     0.263900000000     0.569400000000     0          
C15      C      0.011500000000     0.315730000000     0.682000000000     0          
H6       H      0.003600000000     0.346600000000     0.698100000000     0          
Zr1      Zr     0.515680000000     0.518680000000     0.092090000000     0          
O1       O      0.562350000000     0.471310000000     0.044140000000     0          
O2       O      0.535540000000     0.454530000000     0.144760000000     0          
O3       O      0.536560000000     0.382040000000     0.094310000000     0          
O4       O      0.492650000000     0.099600000000     0.380520000000     0          
O6       O      0.515790000000     0.146480000000     0.451170000000     0          
O7       O      0.510300000000     0.205900000000     0.201560000000     0          
C1       C      0.536990000000     0.405870000000     0.137270000000     0          
C2       C      0.539070000000     0.373390000000     0.184880000000     0          
C3       C      0.547300000000     0.396120000000     0.232020000000     0          
H1       H      0.552000000000     0.431400000000     0.234100000000     0          
C4       C      0.548600000000     0.366320000000     0.276560000000     0          
H2       H      0.557100000000     0.381100000000     0.307900000000     0          
C5       C      0.537400000000     0.315090000000     0.273410000000     0          
C6       C      0.528800000000     0.292490000000     0.225790000000     0          
C7       C      0.529700000000     0.321000000000     0.181010000000     0          
H3       H      0.524100000000     0.305600000000     0.149300000000     0          
C8       C      0.517800000000     0.236550000000     0.233170000000     0          
C9       C      0.507490000000     0.140380000000     0.403450000000     0          
C10      C      0.519700000000     0.228580000000     0.289870000000     0          
C11      C      0.532000000000     0.274850000000     0.313380000000     0          
C12      C      0.538100000000     0.277800000000     0.365490000000     0          
H4       H      0.549600000000     0.307800000000     0.381000000000     0          
C13      C      0.515450000000     0.187290000000     0.371080000000     0          
C14      C      0.526400000000     0.233940000000     0.395010000000     0          
H5       H      0.526000000000     0.236100000000     0.430600000000     0          
C15      C      0.511500000000     0.184270000000     0.318000000000     0          
H6       H      0.503600000000     0.153400000000     0.301900000000     0          


