data_SOQSEY

_audit_creation_method RASPA-1.0
_audit_creation_date 2020-11-2
_audit_author_name 'Rocio Bueno-Perez'

_cell_length_a    26.3478
_cell_length_b    26.3478
_cell_length_c    26.3478
_cell_angle_alpha 90
_cell_angle_beta  90
_cell_angle_gamma 90
_cell_volume      18290.8

_symmetry_cell_setting          cubic
_symmetry_space_group_name_Hall 'P 1'
_symmetry_space_group_name_H-M  'P 1'
_symmetry_Int_Tables_number     1

_symmetry_equiv_pos_as_xyz 'x,y,z'

loop_
_atom_site_label
_atom_site_type_symbol
_atom_site_fract_x
_atom_site_fract_y
_atom_site_fract_z
_atom_site_charge
Zr1      Zr     0.011640000000     0.907690000000     0.986590000000     0          
O2       O      0.643130000000     0.551820000000     0.025050000000     0          
O3       O      0.876980000000     0.908770000000     0.008070000000     0          
O4       O      0.589880000000     0.622030000000     0.026030000000     0          
O5       O      0.945000000000     0.856510000000     0.988470000000     0          
O6       O      0.966680000000     0.942140000000     0.044510000000     0          
C1       C      0.632870000000     0.599120000000     0.024860000000     0          
C2       C      0.898480000000     0.865700000000     0.999290000000     0          
C3       C      0.784330000000     0.783300000000     0.012500000000     0          
C4       C      0.678780000000     0.633190000000     0.022600000000     0          
O7       O      0.691430000000     0.801600000000     0.974100000000     0          
C5       C      0.812380000000     0.826420000000     0.008100000000     0          
H1       H      0.797300000000     0.859200000000     0.008400000000     0          
C6       C      0.769600000000     0.645300000000     0.015400000000     0          
H2       H      0.802700000000     0.631000000000     0.013000000000     0          
C7       C      0.727310000000     0.612900000000     0.018400000000     0          
H3       H      0.731900000000     0.577100000000     0.017500000000     0          
C8       C      0.884700000000     0.771600000000     0.001100000000     0          
H4       H      0.920200000000     0.767200000000     0.996700000000     0          
C9       C      0.803100000000     0.734600000000     0.010600000000     0          
C10      C      0.865180000000     0.819620000000     0.002900000000     0          
C11      C      0.672200000000     0.685440000000     0.022400000000     0          
H5       H      0.639300000000     0.700200000000     0.024400000000     0          
C12      C      0.714900000000     0.714900000000     0.019300000000     0          
C13      C      0.764100000000     0.695800000000     0.015800000000     0          
C14      C      0.854000000000     0.728900000000     0.005500000000     0          
H6       H      0.868600000000     0.695900000000     0.005000000000     0          
S1       S      0.716640000000     0.781920000000     0.018610000000     0          
O8       O      0.701300000000     0.802900000000     0.068700000000     0          
O1       O      0.954120000000     0.954120000000     0.954120000000     0          
Zr1      Zr     0.488360000000     0.092310000000     0.486590000000     0          
O2       O      0.856870000000     0.448180000000     0.525050000000     0          
O3       O      0.623020000000     0.091230000000     0.508070000000     0          
O4       O      0.910120000000     0.377970000000     0.526030000000     0          
O5       O      0.555000000000     0.143490000000     0.488470000000     0          
O6       O      0.533320000000     0.057860000000     0.544510000000     0          
C1       C      0.867130000000     0.400880000000     0.524860000000     0          
C2       C      0.601520000000     0.134300000000     0.499290000000     0          
C3       C      0.715670000000     0.216700000000     0.512500000000     0          
C4       C      0.821220000000     0.366810000000     0.522600000000     0          
O7       O      0.808570000000     0.198400000000     0.474100000000     0          
C5       C      0.687620000000     0.173580000000     0.508100000000     0          
H1       H      0.702700000000     0.140800000000     0.508400000000     0          
C6       C      0.730400000000     0.354700000000     0.515400000000     0          
H2       H      0.697300000000     0.369000000000     0.513000000000     0          
C7       C      0.772690000000     0.387100000000     0.518400000000     0          
H3       H      0.768100000000     0.422900000000     0.517500000000     0          
C8       C      0.615300000000     0.228400000000     0.501100000000     0          
H4       H      0.579800000000     0.232800000000     0.496700000000     0          
C9       C      0.696900000000     0.265400000000     0.510600000000     0          
C10      C      0.634820000000     0.180380000000     0.502900000000     0          
C11      C      0.827800000000     0.314560000000     0.522400000000     0          
H5       H      0.860700000000     0.299800000000     0.524400000000     0          
C12      C      0.785100000000     0.285100000000     0.519300000000     0          
C13      C      0.735900000000     0.304200000000     0.515800000000     0          
C14      C      0.646000000000     0.271100000000     0.505500000000     0          
H6       H      0.631400000000     0.304100000000     0.505000000000     0          
S1       S      0.783360000000     0.218080000000     0.518610000000     0          
O8       O      0.798700000000     0.197100000000     0.568700000000     0          
O1       O      0.545880000000     0.045880000000     0.454120000000     0          
Zr1      Zr     0.511640000000     0.592310000000     0.013410000000     0          
O2       O      0.143130000000     0.948180000000     0.974950000000     0          
O3       O      0.376980000000     0.591230000000     0.991930000000     0          
O4       O      0.089880000000     0.877970000000     0.973970000000     0          
O5       O      0.445000000000     0.643490000000     0.011530000000     0          
O6       O      0.466680000000     0.557860000000     0.955490000000     0          
C1       C      0.132870000000     0.900880000000     0.975140000000     0          
C2       C      0.398480000000     0.634300000000     0.000710000000     0          
C3       C      0.284330000000     0.716700000000     0.987500000000     0          
C4       C      0.178780000000     0.866810000000     0.977400000000     0          
O7       O      0.191430000000     0.698400000000     0.025900000000     0          
C5       C      0.312380000000     0.673580000000     0.991900000000     0          
H1       H      0.297300000000     0.640800000000     0.991600000000     0          
C6       C      0.269600000000     0.854700000000     0.984600000000     0          
H2       H      0.302700000000     0.869000000000     0.987000000000     0          
C7       C      0.227310000000     0.887100000000     0.981600000000     0          
H3       H      0.231900000000     0.922900000000     0.982500000000     0          
C8       C      0.384700000000     0.728400000000     0.998900000000     0          
H4       H      0.420200000000     0.732800000000     0.003300000000     0          
C9       C      0.303100000000     0.765400000000     0.989400000000     0          
C10      C      0.365180000000     0.680380000000     0.997100000000     0          
C11      C      0.172200000000     0.814560000000     0.977600000000     0          
H5       H      0.139300000000     0.799800000000     0.975600000000     0          
C12      C      0.214900000000     0.785100000000     0.980700000000     0          
C13      C      0.264100000000     0.804200000000     0.984200000000     0          
C14      C      0.354000000000     0.771100000000     0.994500000000     0          
H6       H      0.368600000000     0.804100000000     0.995000000000     0          
S1       S      0.216640000000     0.718080000000     0.981390000000     0          
O8       O      0.201300000000     0.697100000000     0.931300000000     0          
O1       O      0.454120000000     0.545880000000     0.045880000000     0          
Zr1      Zr     0.988360000000     0.407690000000     0.513410000000     0          
O2       O      0.356870000000     0.051820000000     0.474950000000     0          
O3       O      0.123020000000     0.408770000000     0.491930000000     0          
O4       O      0.410120000000     0.122030000000     0.473970000000     0          
O5       O      0.055000000000     0.356510000000     0.511530000000     0          
O6       O      0.033320000000     0.442140000000     0.455490000000     0          
C1       C      0.367130000000     0.099120000000     0.475140000000     0          
C2       C      0.101520000000     0.365700000000     0.500710000000     0          
C3       C      0.215670000000     0.283300000000     0.487500000000     0          
C4       C      0.321220000000     0.133190000000     0.477400000000     0          
O7       O      0.308570000000     0.301600000000     0.525900000000     0          
C5       C      0.187620000000     0.326420000000     0.491900000000     0          
H1       H      0.202700000000     0.359200000000     0.491600000000     0          
C6       C      0.230400000000     0.145300000000     0.484600000000     0          
H2       H      0.197300000000     0.131000000000     0.487000000000     0          
C7       C      0.272690000000     0.112900000000     0.481600000000     0          
H3       H      0.268100000000     0.077100000000     0.482500000000     0          
C8       C      0.115300000000     0.271600000000     0.498900000000     0          
H4       H      0.079800000000     0.267200000000     0.503300000000     0          
C9       C      0.196900000000     0.234600000000     0.489400000000     0          
C10      C      0.134820000000     0.319620000000     0.497100000000     0          
C11      C      0.327800000000     0.185440000000     0.477600000000     0          
H5       H      0.360700000000     0.200200000000     0.475600000000     0          
C12      C      0.285100000000     0.214900000000     0.480700000000     0          
C13      C      0.235900000000     0.195800000000     0.484200000000     0          
C14      C      0.146000000000     0.228900000000     0.494500000000     0          
H6       H      0.131400000000     0.195900000000     0.495000000000     0          
S1       S      0.283360000000     0.281920000000     0.481390000000     0          
O8       O      0.298700000000     0.302900000000     0.431300000000     0          
O1       O      0.045880000000     0.454120000000     0.545880000000     0          
Zr1      Zr     0.986590000000     0.011640000000     0.907690000000     0          
O2       O      0.025050000000     0.643130000000     0.551820000000     0          
O3       O      0.008070000000     0.876980000000     0.908770000000     0          
O4       O      0.026030000000     0.589880000000     0.622030000000     0          
O5       O      0.988470000000     0.945000000000     0.856510000000     0          
O6       O      0.044510000000     0.966680000000     0.942140000000     0          
C1       C      0.024860000000     0.632870000000     0.599120000000     0          
C2       C      0.999290000000     0.898480000000     0.865700000000     0          
C3       C      0.012500000000     0.784330000000     0.783300000000     0          
C4       C      0.022600000000     0.678780000000     0.633190000000     0          
O7       O      0.974100000000     0.691430000000     0.801600000000     0          
C5       C      0.008100000000     0.812380000000     0.826420000000     0          
H1       H      0.008400000000     0.797300000000     0.859200000000     0          
C6       C      0.015400000000     0.769600000000     0.645300000000     0          
H2       H      0.013000000000     0.802700000000     0.631000000000     0          
C7       C      0.018400000000     0.727310000000     0.612900000000     0          
H3       H      0.017500000000     0.731900000000     0.577100000000     0          
C8       C      0.001100000000     0.884700000000     0.771600000000     0          
H4       H      0.996700000000     0.920200000000     0.767200000000     0          
C9       C      0.010600000000     0.803100000000     0.734600000000     0          
C10      C      0.002900000000     0.865180000000     0.819620000000     0          
C11      C      0.022400000000     0.672200000000     0.685440000000     0          
H5       H      0.024400000000     0.639300000000     0.700200000000     0          
C12      C      0.019300000000     0.714900000000     0.714900000000     0          
C13      C      0.015800000000     0.764100000000     0.695800000000     0          
C14      C      0.005500000000     0.854000000000     0.728900000000     0          
H6       H      0.005000000000     0.868600000000     0.695900000000     0          
S1       S      0.018610000000     0.716640000000     0.781920000000     0          
O8       O      0.068700000000     0.701300000000     0.802900000000     0          
Zr1      Zr     0.513410000000     0.988360000000     0.407690000000     0          
O2       O      0.474950000000     0.356870000000     0.051820000000     0          
O3       O      0.491930000000     0.123020000000     0.408770000000     0          
O4       O      0.473970000000     0.410120000000     0.122030000000     0          
O5       O      0.511530000000     0.055000000000     0.356510000000     0          
O6       O      0.455490000000     0.033320000000     0.442140000000     0          
C1       C      0.475140000000     0.367130000000     0.099120000000     0          
C2       C      0.500710000000     0.101520000000     0.365700000000     0          
C3       C      0.487500000000     0.215670000000     0.283300000000     0          
C4       C      0.477400000000     0.321220000000     0.133190000000     0          
O7       O      0.525900000000     0.308570000000     0.301600000000     0          
C5       C      0.491900000000     0.187620000000     0.326420000000     0          
H1       H      0.491600000000     0.202700000000     0.359200000000     0          
C6       C      0.484600000000     0.230400000000     0.145300000000     0          
H2       H      0.487000000000     0.197300000000     0.131000000000     0          
C7       C      0.481600000000     0.272690000000     0.112900000000     0          
H3       H      0.482500000000     0.268100000000     0.077100000000     0          
C8       C      0.498900000000     0.115300000000     0.271600000000     0          
H4       H      0.503300000000     0.079800000000     0.267200000000     0          
C9       C      0.489400000000     0.196900000000     0.234600000000     0          
C10      C      0.497100000000     0.134820000000     0.319620000000     0          
C11      C      0.477600000000     0.327800000000     0.185440000000     0          
H5       H      0.475600000000     0.360700000000     0.200200000000     0          
C12      C      0.480700000000     0.285100000000     0.214900000000     0          
C13      C      0.484200000000     0.235900000000     0.195800000000     0          
C14      C      0.494500000000     0.146000000000     0.228900000000     0          
H6       H      0.495000000000     0.131400000000     0.195900000000     0          
S1       S      0.481390000000     0.283360000000     0.281920000000     0          
O8       O      0.431300000000     0.298700000000     0.302900000000     0          
Zr1      Zr     0.486590000000     0.488360000000     0.092310000000     0          
O2       O      0.525050000000     0.856870000000     0.448180000000     0          
O3       O      0.508070000000     0.623020000000     0.091230000000     0          
O4       O      0.526030000000     0.910120000000     0.377970000000     0          
O5       O      0.488470000000     0.555000000000     0.143490000000     0          
O6       O      0.544510000000     0.533320000000     0.057860000000     0          
C1       C      0.524860000000     0.867130000000     0.400880000000     0          
C2       C      0.499290000000     0.601520000000     0.134300000000     0          
C3       C      0.512500000000     0.715670000000     0.216700000000     0          
C4       C      0.522600000000     0.821220000000     0.366810000000     0          
O7       O      0.474100000000     0.808570000000     0.198400000000     0          
C5       C      0.508100000000     0.687620000000     0.173580000000     0          
H1       H      0.508400000000     0.702700000000     0.140800000000     0          
C6       C      0.515400000000     0.730400000000     0.354700000000     0          
H2       H      0.513000000000     0.697300000000     0.369000000000     0          
C7       C      0.518400000000     0.772690000000     0.387100000000     0          
H3       H      0.517500000000     0.768100000000     0.422900000000     0          
C8       C      0.501100000000     0.615300000000     0.228400000000     0          
H4       H      0.496700000000     0.579800000000     0.232800000000     0          
C9       C      0.510600000000     0.696900000000     0.265400000000     0          
C10      C      0.502900000000     0.634820000000     0.180380000000     0          
C11      C      0.522400000000     0.827800000000     0.314560000000     0          
H5       H      0.524400000000     0.860700000000     0.299800000000     0          
C12      C      0.519300000000     0.785100000000     0.285100000000     0          
C13      C      0.515800000000     0.735900000000     0.304200000000     0          
C14      C      0.505500000000     0.646000000000     0.271100000000     0          
H6       H      0.505000000000     0.631400000000     0.304100000000     0          
S1       S      0.518610000000     0.783360000000     0.218080000000     0          
O8       O      0.568700000000     0.798700000000     0.197100000000     0          
Zr1      Zr     0.013410000000     0.511640000000     0.592310000000     0          
O2       O      0.974950000000     0.143130000000     0.948180000000     0          
O3       O      0.991930000000     0.376980000000     0.591230000000     0          
O4       O      0.973970000000     0.089880000000     0.877970000000     0          
O5       O      0.011530000000     0.445000000000     0.643490000000     0          
O6       O      0.955490000000     0.466680000000     0.557860000000     0          
C1       C      0.975140000000     0.132870000000     0.900880000000     0          
C2       C      0.000710000000     0.398480000000     0.634300000000     0          
C3       C      0.987500000000     0.284330000000     0.716700000000     0          
C4       C      0.977400000000     0.178780000000     0.866810000000     0          
O7       O      0.025900000000     0.191430000000     0.698400000000     0          
C5       C      0.991900000000     0.312380000000     0.673580000000     0          
H1       H      0.991600000000     0.297300000000     0.640800000000     0          
C6       C      0.984600000000     0.269600000000     0.854700000000     0          
H2       H      0.987000000000     0.302700000000     0.869000000000     0          
C7       C      0.981600000000     0.227310000000     0.887100000000     0          
H3       H      0.982500000000     0.231900000000     0.922900000000     0          
C8       C      0.998900000000     0.384700000000     0.728400000000     0          
H4       H      0.003300000000     0.420200000000     0.732800000000     0          
C9       C      0.989400000000     0.303100000000     0.765400000000     0          
C10      C      0.997100000000     0.365180000000     0.680380000000     0          
C11      C      0.977600000000     0.172200000000     0.814560000000     0          
H5       H      0.975600000000     0.139300000000     0.799800000000     0          
C12      C      0.980700000000     0.214900000000     0.785100000000     0          
C13      C      0.984200000000     0.264100000000     0.804200000000     0          
C14      C      0.994500000000     0.354000000000     0.771100000000     0          
H6       H      0.995000000000     0.368600000000     0.804100000000     0          
S1       S      0.981390000000     0.216640000000     0.718080000000     0          
O8       O      0.931300000000     0.201300000000     0.697100000000     0          
Zr1      Zr     0.907690000000     0.986590000000     0.011640000000     0          
O2       O      0.551820000000     0.025050000000     0.643130000000     0          
O3       O      0.908770000000     0.008070000000     0.876980000000     0          
O4       O      0.622030000000     0.026030000000     0.589880000000     0          
O5       O      0.856510000000     0.988470000000     0.945000000000     0          
O6       O      0.942140000000     0.044510000000     0.966680000000     0          
C1       C      0.599120000000     0.024860000000     0.632870000000     0          
C2       C      0.865700000000     0.999290000000     0.898480000000     0          
C3       C      0.783300000000     0.012500000000     0.784330000000     0          
C4       C      0.633190000000     0.022600000000     0.678780000000     0          
O7       O      0.801600000000     0.974100000000     0.691430000000     0          
C5       C      0.826420000000     0.008100000000     0.812380000000     0          
H1       H      0.859200000000     0.008400000000     0.797300000000     0          
C6       C      0.645300000000     0.015400000000     0.769600000000     0          
H2       H      0.631000000000     0.013000000000     0.802700000000     0          
C7       C      0.612900000000     0.018400000000     0.727310000000     0          
H3       H      0.577100000000     0.017500000000     0.731900000000     0          
C8       C      0.771600000000     0.001100000000     0.884700000000     0          
H4       H      0.767200000000     0.996700000000     0.920200000000     0          
C9       C      0.734600000000     0.010600000000     0.803100000000     0          
C10      C      0.819620000000     0.002900000000     0.865180000000     0          
C11      C      0.685440000000     0.022400000000     0.672200000000     0          
H5       H      0.700200000000     0.024400000000     0.639300000000     0          
C12      C      0.714900000000     0.019300000000     0.714900000000     0          
C13      C      0.695800000000     0.015800000000     0.764100000000     0          
C14      C      0.728900000000     0.005500000000     0.854000000000     0          
H6       H      0.695900000000     0.005000000000     0.868600000000     0          
S1       S      0.781920000000     0.018610000000     0.716640000000     0          
O8       O      0.802900000000     0.068700000000     0.701300000000     0          
Zr1      Zr     0.407690000000     0.513410000000     0.988360000000     0          
O2       O      0.051820000000     0.474950000000     0.356870000000     0          
O3       O      0.408770000000     0.491930000000     0.123020000000     0          
O4       O      0.122030000000     0.473970000000     0.410120000000     0          
O5       O      0.356510000000     0.511530000000     0.055000000000     0          
O6       O      0.442140000000     0.455490000000     0.033320000000     0          
C1       C      0.099120000000     0.475140000000     0.367130000000     0          
C2       C      0.365700000000     0.500710000000     0.101520000000     0          
C3       C      0.283300000000     0.487500000000     0.215670000000     0          
C4       C      0.133190000000     0.477400000000     0.321220000000     0          
O7       O      0.301600000000     0.525900000000     0.308570000000     0          
C5       C      0.326420000000     0.491900000000     0.187620000000     0          
H1       H      0.359200000000     0.491600000000     0.202700000000     0          
C6       C      0.145300000000     0.484600000000     0.230400000000     0          
H2       H      0.131000000000     0.487000000000     0.197300000000     0          
C7       C      0.112900000000     0.481600000000     0.272690000000     0          
H3       H      0.077100000000     0.482500000000     0.268100000000     0          
C8       C      0.271600000000     0.498900000000     0.115300000000     0          
H4       H      0.267200000000     0.503300000000     0.079800000000     0          
C9       C      0.234600000000     0.489400000000     0.196900000000     0          
C10      C      0.319620000000     0.497100000000     0.134820000000     0          
C11      C      0.185440000000     0.477600000000     0.327800000000     0          
H5       H      0.200200000000     0.475600000000     0.360700000000     0          
C12      C      0.214900000000     0.480700000000     0.285100000000     0          
C13      C      0.195800000000     0.484200000000     0.235900000000     0          
C14      C      0.228900000000     0.494500000000     0.146000000000     0          
H6       H      0.195900000000     0.495000000000     0.131400000000     0          
S1       S      0.281920000000     0.481390000000     0.283360000000     0          
O8       O      0.302900000000     0.431300000000     0.298700000000     0          
Zr1      Zr     0.092310000000     0.486590000000     0.488360000000     0          
O2       O      0.448180000000     0.525050000000     0.856870000000     0          
O3       O      0.091230000000     0.508070000000     0.623020000000     0          
O4       O      0.377970000000     0.526030000000     0.910120000000     0          
O5       O      0.143490000000     0.488470000000     0.555000000000     0          
O6       O      0.057860000000     0.544510000000     0.533320000000     0          
C1       C      0.400880000000     0.524860000000     0.867130000000     0          
C2       C      0.134300000000     0.499290000000     0.601520000000     0          
C3       C      0.216700000000     0.512500000000     0.715670000000     0          
C4       C      0.366810000000     0.522600000000     0.821220000000     0          
O7       O      0.198400000000     0.474100000000     0.808570000000     0          
C5       C      0.173580000000     0.508100000000     0.687620000000     0          
H1       H      0.140800000000     0.508400000000     0.702700000000     0          
C6       C      0.354700000000     0.515400000000     0.730400000000     0          
H2       H      0.369000000000     0.513000000000     0.697300000000     0          
C7       C      0.387100000000     0.518400000000     0.772690000000     0          
H3       H      0.422900000000     0.517500000000     0.768100000000     0          
C8       C      0.228400000000     0.501100000000     0.615300000000     0          
H4       H      0.232800000000     0.496700000000     0.579800000000     0          
C9       C      0.265400000000     0.510600000000     0.696900000000     0          
C10      C      0.180380000000     0.502900000000     0.634820000000     0          
C11      C      0.314560000000     0.522400000000     0.827800000000     0          
H5       H      0.299800000000     0.524400000000     0.860700000000     0          
C12      C      0.285100000000     0.519300000000     0.785100000000     0          
C13      C      0.304200000000     0.515800000000     0.735900000000     0          
C14      C      0.271100000000     0.505500000000     0.646000000000     0          
H6       H      0.304100000000     0.505000000000     0.631400000000     0          
S1       S      0.218080000000     0.518610000000     0.783360000000     0          
O8       O      0.197100000000     0.568700000000     0.798700000000     0          
Zr1      Zr     0.592310000000     0.013410000000     0.511640000000     0          
O2       O      0.948180000000     0.974950000000     0.143130000000     0          
O3       O      0.591230000000     0.991930000000     0.376980000000     0          
O4       O      0.877970000000     0.973970000000     0.089880000000     0          
O5       O      0.643490000000     0.011530000000     0.445000000000     0          
O6       O      0.557860000000     0.955490000000     0.466680000000     0          
C1       C      0.900880000000     0.975140000000     0.132870000000     0          
C2       C      0.634300000000     0.000710000000     0.398480000000     0          
C3       C      0.716700000000     0.987500000000     0.284330000000     0          
C4       C      0.866810000000     0.977400000000     0.178780000000     0          
O7       O      0.698400000000     0.025900000000     0.191430000000     0          
C5       C      0.673580000000     0.991900000000     0.312380000000     0          
H1       H      0.640800000000     0.991600000000     0.297300000000     0          
C6       C      0.854700000000     0.984600000000     0.269600000000     0          
H2       H      0.869000000000     0.987000000000     0.302700000000     0          
C7       C      0.887100000000     0.981600000000     0.227310000000     0          
H3       H      0.922900000000     0.982500000000     0.231900000000     0          
C8       C      0.728400000000     0.998900000000     0.384700000000     0          
H4       H      0.732800000000     0.003300000000     0.420200000000     0          
C9       C      0.765400000000     0.989400000000     0.303100000000     0          
C10      C      0.680380000000     0.997100000000     0.365180000000     0          
C11      C      0.814560000000     0.977600000000     0.172200000000     0          
H5       H      0.799800000000     0.975600000000     0.139300000000     0          
C12      C      0.785100000000     0.980700000000     0.214900000000     0          
C13      C      0.804200000000     0.984200000000     0.264100000000     0          
C14      C      0.771100000000     0.994500000000     0.354000000000     0          
H6       H      0.804100000000     0.995000000000     0.368600000000     0          
S1       S      0.718080000000     0.981390000000     0.216640000000     0          
O8       O      0.697100000000     0.931300000000     0.201300000000     0          
Zr1      Zr     0.988360000000     0.092310000000     0.013410000000     0          
O2       O      0.356870000000     0.448180000000     0.974950000000     0          
O3       O      0.123020000000     0.091230000000     0.991930000000     0          
O4       O      0.410120000000     0.377970000000     0.973970000000     0          
O5       O      0.055000000000     0.143490000000     0.011530000000     0          
O6       O      0.033320000000     0.057860000000     0.955490000000     0          
C1       C      0.367130000000     0.400880000000     0.975140000000     0          
C2       C      0.101520000000     0.134300000000     0.000710000000     0          
C3       C      0.215670000000     0.216700000000     0.987500000000     0          
C4       C      0.321220000000     0.366810000000     0.977400000000     0          
O7       O      0.308570000000     0.198400000000     0.025900000000     0          
C5       C      0.187620000000     0.173580000000     0.991900000000     0          
H1       H      0.202700000000     0.140800000000     0.991600000000     0          
C6       C      0.230400000000     0.354700000000     0.984600000000     0          
H2       H      0.197300000000     0.369000000000     0.987000000000     0          
C7       C      0.272690000000     0.387100000000     0.981600000000     0          
H3       H      0.268100000000     0.422900000000     0.982500000000     0          
C8       C      0.115300000000     0.228400000000     0.998900000000     0          
H4       H      0.079800000000     0.232800000000     0.003300000000     0          
C9       C      0.196900000000     0.265400000000     0.989400000000     0          
C10      C      0.134820000000     0.180380000000     0.997100000000     0          
C11      C      0.327800000000     0.314560000000     0.977600000000     0          
H5       H      0.360700000000     0.299800000000     0.975600000000     0          
C12      C      0.285100000000     0.285100000000     0.980700000000     0          
C13      C      0.235900000000     0.304200000000     0.984200000000     0          
C14      C      0.146000000000     0.271100000000     0.994500000000     0          
H6       H      0.131400000000     0.304100000000     0.995000000000     0          
S1       S      0.283360000000     0.218080000000     0.981390000000     0          
O8       O      0.298700000000     0.197100000000     0.931300000000     0          
O1       O      0.045880000000     0.045880000000     0.045880000000     0          
Zr1      Zr     0.511640000000     0.907690000000     0.513410000000     0          
O2       O      0.143130000000     0.551820000000     0.474950000000     0          
O3       O      0.376980000000     0.908770000000     0.491930000000     0          
O4       O      0.089880000000     0.622030000000     0.473970000000     0          
O5       O      0.445000000000     0.856510000000     0.511530000000     0          
O6       O      0.466680000000     0.942140000000     0.455490000000     0          
C1       C      0.132870000000     0.599120000000     0.475140000000     0          
C2       C      0.398480000000     0.865700000000     0.500710000000     0          
C3       C      0.284330000000     0.783300000000     0.487500000000     0          
C4       C      0.178780000000     0.633190000000     0.477400000000     0          
O7       O      0.191430000000     0.801600000000     0.525900000000     0          
C5       C      0.312380000000     0.826420000000     0.491900000000     0          
H1       H      0.297300000000     0.859200000000     0.491600000000     0          
C6       C      0.269600000000     0.645300000000     0.484600000000     0          
H2       H      0.302700000000     0.631000000000     0.487000000000     0          
C7       C      0.227310000000     0.612900000000     0.481600000000     0          
H3       H      0.231900000000     0.577100000000     0.482500000000     0          
C8       C      0.384700000000     0.771600000000     0.498900000000     0          
H4       H      0.420200000000     0.767200000000     0.503300000000     0          
C9       C      0.303100000000     0.734600000000     0.489400000000     0          
C10      C      0.365180000000     0.819620000000     0.497100000000     0          
C11      C      0.172200000000     0.685440000000     0.477600000000     0          
H5       H      0.139300000000     0.700200000000     0.475600000000     0          
C12      C      0.214900000000     0.714900000000     0.480700000000     0          
C13      C      0.264100000000     0.695800000000     0.484200000000     0          
C14      C      0.354000000000     0.728900000000     0.494500000000     0          
H6       H      0.368600000000     0.695900000000     0.495000000000     0          
S1       S      0.216640000000     0.781920000000     0.481390000000     0          
O8       O      0.201300000000     0.802900000000     0.431300000000     0          
O1       O      0.454120000000     0.954120000000     0.545880000000     0          
Zr1      Zr     0.488360000000     0.407690000000     0.986590000000     0          
O2       O      0.856870000000     0.051820000000     0.025050000000     0          
O3       O      0.623020000000     0.408770000000     0.008070000000     0          
O4       O      0.910120000000     0.122030000000     0.026030000000     0          
O5       O      0.555000000000     0.356510000000     0.988470000000     0          
O6       O      0.533320000000     0.442140000000     0.044510000000     0          
C1       C      0.867130000000     0.099120000000     0.024860000000     0          
C2       C      0.601520000000     0.365700000000     0.999290000000     0          
C3       C      0.715670000000     0.283300000000     0.012500000000     0          
C4       C      0.821220000000     0.133190000000     0.022600000000     0          
O7       O      0.808570000000     0.301600000000     0.974100000000     0          
C5       C      0.687620000000     0.326420000000     0.008100000000     0          
H1       H      0.702700000000     0.359200000000     0.008400000000     0          
C6       C      0.730400000000     0.145300000000     0.015400000000     0          
H2       H      0.697300000000     0.131000000000     0.013000000000     0          
C7       C      0.772690000000     0.112900000000     0.018400000000     0          
H3       H      0.768100000000     0.077100000000     0.017500000000     0          
C8       C      0.615300000000     0.271600000000     0.001100000000     0          
H4       H      0.579800000000     0.267200000000     0.996700000000     0          
C9       C      0.696900000000     0.234600000000     0.010600000000     0          
C10      C      0.634820000000     0.319620000000     0.002900000000     0          
C11      C      0.827800000000     0.185440000000     0.022400000000     0          
H5       H      0.860700000000     0.200200000000     0.024400000000     0          
C12      C      0.785100000000     0.214900000000     0.019300000000     0          
C13      C      0.735900000000     0.195800000000     0.015800000000     0          
C14      C      0.646000000000     0.228900000000     0.005500000000     0          
H6       H      0.631400000000     0.195900000000     0.005000000000     0          
S1       S      0.783360000000     0.281920000000     0.018610000000     0          
O8       O      0.798700000000     0.302900000000     0.068700000000     0          
O1       O      0.545880000000     0.454120000000     0.954120000000     0          
Zr1      Zr     0.011640000000     0.592310000000     0.486590000000     0          
O2       O      0.643130000000     0.948180000000     0.525050000000     0          
O3       O      0.876980000000     0.591230000000     0.508070000000     0          
O4       O      0.589880000000     0.877970000000     0.526030000000     0          
O5       O      0.945000000000     0.643490000000     0.488470000000     0          
O6       O      0.966680000000     0.557860000000     0.544510000000     0          
C1       C      0.632870000000     0.900880000000     0.524860000000     0          
C2       C      0.898480000000     0.634300000000     0.499290000000     0          
C3       C      0.784330000000     0.716700000000     0.512500000000     0          
C4       C      0.678780000000     0.866810000000     0.522600000000     0          
O7       O      0.691430000000     0.698400000000     0.474100000000     0          
C5       C      0.812380000000     0.673580000000     0.508100000000     0          
H1       H      0.797300000000     0.640800000000     0.508400000000     0          
C6       C      0.769600000000     0.854700000000     0.515400000000     0          
H2       H      0.802700000000     0.869000000000     0.513000000000     0          
C7       C      0.727310000000     0.887100000000     0.518400000000     0          
H3       H      0.731900000000     0.922900000000     0.517500000000     0          
C8       C      0.884700000000     0.728400000000     0.501100000000     0          
H4       H      0.920200000000     0.732800000000     0.496700000000     0          
C9       C      0.803100000000     0.765400000000     0.510600000000     0          
C10      C      0.865180000000     0.680380000000     0.502900000000     0          
C11      C      0.672200000000     0.814560000000     0.522400000000     0          
H5       H      0.639300000000     0.799800000000     0.524400000000     0          
C12      C      0.714900000000     0.785100000000     0.519300000000     0          
C13      C      0.764100000000     0.804200000000     0.515800000000     0          
C14      C      0.854000000000     0.771100000000     0.505500000000     0          
H6       H      0.868600000000     0.804100000000     0.505000000000     0          
S1       S      0.716640000000     0.718080000000     0.518610000000     0          
O8       O      0.701300000000     0.697100000000     0.568700000000     0          
O1       O      0.954120000000     0.545880000000     0.454120000000     0          
Zr1      Zr     0.013410000000     0.988360000000     0.092310000000     0          
O2       O      0.974950000000     0.356870000000     0.448180000000     0          
O3       O      0.991930000000     0.123020000000     0.091230000000     0          
O4       O      0.973970000000     0.410120000000     0.377970000000     0          
O5       O      0.011530000000     0.055000000000     0.143490000000     0          
O6       O      0.955490000000     0.033320000000     0.057860000000     0          
C1       C      0.975140000000     0.367130000000     0.400880000000     0          
C2       C      0.000710000000     0.101520000000     0.134300000000     0          
C3       C      0.987500000000     0.215670000000     0.216700000000     0          
C4       C      0.977400000000     0.321220000000     0.366810000000     0          
O7       O      0.025900000000     0.308570000000     0.198400000000     0          
C5       C      0.991900000000     0.187620000000     0.173580000000     0          
H1       H      0.991600000000     0.202700000000     0.140800000000     0          
C6       C      0.984600000000     0.230400000000     0.354700000000     0          
H2       H      0.987000000000     0.197300000000     0.369000000000     0          
C7       C      0.981600000000     0.272690000000     0.387100000000     0          
H3       H      0.982500000000     0.268100000000     0.422900000000     0          
C8       C      0.998900000000     0.115300000000     0.228400000000     0          
H4       H      0.003300000000     0.079800000000     0.232800000000     0          
C9       C      0.989400000000     0.196900000000     0.265400000000     0          
C10      C      0.997100000000     0.134820000000     0.180380000000     0          
C11      C      0.977600000000     0.327800000000     0.314560000000     0          
H5       H      0.975600000000     0.360700000000     0.299800000000     0          
C12      C      0.980700000000     0.285100000000     0.285100000000     0          
C13      C      0.984200000000     0.235900000000     0.304200000000     0          
C14      C      0.994500000000     0.146000000000     0.271100000000     0          
H6       H      0.995000000000     0.131400000000     0.304100000000     0          
S1       S      0.981390000000     0.283360000000     0.218080000000     0          
O8       O      0.931300000000     0.298700000000     0.197100000000     0          
Zr1      Zr     0.486590000000     0.011640000000     0.592310000000     0          
O2       O      0.525050000000     0.643130000000     0.948180000000     0          
O3       O      0.508070000000     0.876980000000     0.591230000000     0          
O4       O      0.526030000000     0.589880000000     0.877970000000     0          
O5       O      0.488470000000     0.945000000000     0.643490000000     0          
O6       O      0.544510000000     0.966680000000     0.557860000000     0          
C1       C      0.524860000000     0.632870000000     0.900880000000     0          
C2       C      0.499290000000     0.898480000000     0.634300000000     0          
C3       C      0.512500000000     0.784330000000     0.716700000000     0          
C4       C      0.522600000000     0.678780000000     0.866810000000     0          
O7       O      0.474100000000     0.691430000000     0.698400000000     0          
C5       C      0.508100000000     0.812380000000     0.673580000000     0          
H1       H      0.508400000000     0.797300000000     0.640800000000     0          
C6       C      0.515400000000     0.769600000000     0.854700000000     0          
H2       H      0.513000000000     0.802700000000     0.869000000000     0          
C7       C      0.518400000000     0.727310000000     0.887100000000     0          
H3       H      0.517500000000     0.731900000000     0.922900000000     0          
C8       C      0.501100000000     0.884700000000     0.728400000000     0          
H4       H      0.496700000000     0.920200000000     0.732800000000     0          
C9       C      0.510600000000     0.803100000000     0.765400000000     0          
C10      C      0.502900000000     0.865180000000     0.680380000000     0          
C11      C      0.522400000000     0.672200000000     0.814560000000     0          
H5       H      0.524400000000     0.639300000000     0.799800000000     0          
C12      C      0.519300000000     0.714900000000     0.785100000000     0          
C13      C      0.515800000000     0.764100000000     0.804200000000     0          
C14      C      0.505500000000     0.854000000000     0.771100000000     0          
H6       H      0.505000000000     0.868600000000     0.804100000000     0          
S1       S      0.518610000000     0.716640000000     0.718080000000     0          
O8       O      0.568700000000     0.701300000000     0.697100000000     0          
Zr1      Zr     0.513410000000     0.511640000000     0.907690000000     0          
O2       O      0.474950000000     0.143130000000     0.551820000000     0          
O3       O      0.491930000000     0.376980000000     0.908770000000     0          
O4       O      0.473970000000     0.089880000000     0.622030000000     0          
O5       O      0.511530000000     0.445000000000     0.856510000000     0          
O6       O      0.455490000000     0.466680000000     0.942140000000     0          
C1       C      0.475140000000     0.132870000000     0.599120000000     0          
C2       C      0.500710000000     0.398480000000     0.865700000000     0          
C3       C      0.487500000000     0.284330000000     0.783300000000     0          
C4       C      0.477400000000     0.178780000000     0.633190000000     0          
O7       O      0.525900000000     0.191430000000     0.801600000000     0          
C5       C      0.491900000000     0.312380000000     0.826420000000     0          
H1       H      0.491600000000     0.297300000000     0.859200000000     0          
C6       C      0.484600000000     0.269600000000     0.645300000000     0          
H2       H      0.487000000000     0.302700000000     0.631000000000     0          
C7       C      0.481600000000     0.227310000000     0.612900000000     0          
H3       H      0.482500000000     0.231900000000     0.577100000000     0          
C8       C      0.498900000000     0.384700000000     0.771600000000     0          
H4       H      0.503300000000     0.420200000000     0.767200000000     0          
C9       C      0.489400000000     0.303100000000     0.734600000000     0          
C10      C      0.497100000000     0.365180000000     0.819620000000     0          
C11      C      0.477600000000     0.172200000000     0.685440000000     0          
H5       H      0.475600000000     0.139300000000     0.700200000000     0          
C12      C      0.480700000000     0.214900000000     0.714900000000     0          
C13      C      0.484200000000     0.264100000000     0.695800000000     0          
C14      C      0.494500000000     0.354000000000     0.728900000000     0          
H6       H      0.495000000000     0.368600000000     0.695900000000     0          
S1       S      0.481390000000     0.216640000000     0.781920000000     0          
O8       O      0.431300000000     0.201300000000     0.802900000000     0          
Zr1      Zr     0.986590000000     0.488360000000     0.407690000000     0          
O2       O      0.025050000000     0.856870000000     0.051820000000     0          
O3       O      0.008070000000     0.623020000000     0.408770000000     0          
O4       O      0.026030000000     0.910120000000     0.122030000000     0          
O5       O      0.988470000000     0.555000000000     0.356510000000     0          
O6       O      0.044510000000     0.533320000000     0.442140000000     0          
C1       C      0.024860000000     0.867130000000     0.099120000000     0          
C2       C      0.999290000000     0.601520000000     0.365700000000     0          
C3       C      0.012500000000     0.715670000000     0.283300000000     0          
C4       C      0.022600000000     0.821220000000     0.133190000000     0          
O7       O      0.974100000000     0.808570000000     0.301600000000     0          
C5       C      0.008100000000     0.687620000000     0.326420000000     0          
H1       H      0.008400000000     0.702700000000     0.359200000000     0          
C6       C      0.015400000000     0.730400000000     0.145300000000     0          
H2       H      0.013000000000     0.697300000000     0.131000000000     0          
C7       C      0.018400000000     0.772690000000     0.112900000000     0          
H3       H      0.017500000000     0.768100000000     0.077100000000     0          
C8       C      0.001100000000     0.615300000000     0.271600000000     0          
H4       H      0.996700000000     0.579800000000     0.267200000000     0          
C9       C      0.010600000000     0.696900000000     0.234600000000     0          
C10      C      0.002900000000     0.634820000000     0.319620000000     0          
C11      C      0.022400000000     0.827800000000     0.185440000000     0          
H5       H      0.024400000000     0.860700000000     0.200200000000     0          
C12      C      0.019300000000     0.785100000000     0.214900000000     0          
C13      C      0.015800000000     0.735900000000     0.195800000000     0          
C14      C      0.005500000000     0.646000000000     0.228900000000     0          
H6       H      0.005000000000     0.631400000000     0.195900000000     0          
S1       S      0.018610000000     0.783360000000     0.281920000000     0          
O8       O      0.068700000000     0.798700000000     0.302900000000     0          
Zr1      Zr     0.092310000000     0.013410000000     0.988360000000     0          
O2       O      0.448180000000     0.974950000000     0.356870000000     0          
O3       O      0.091230000000     0.991930000000     0.123020000000     0          
O4       O      0.377970000000     0.973970000000     0.410120000000     0          
O5       O      0.143490000000     0.011530000000     0.055000000000     0          
O6       O      0.057860000000     0.955490000000     0.033320000000     0          
C1       C      0.400880000000     0.975140000000     0.367130000000     0          
C2       C      0.134300000000     0.000710000000     0.101520000000     0          
C3       C      0.216700000000     0.987500000000     0.215670000000     0          
C4       C      0.366810000000     0.977400000000     0.321220000000     0          
O7       O      0.198400000000     0.025900000000     0.308570000000     0          
C5       C      0.173580000000     0.991900000000     0.187620000000     0          
H1       H      0.140800000000     0.991600000000     0.202700000000     0          
C6       C      0.354700000000     0.984600000000     0.230400000000     0          
H2       H      0.369000000000     0.987000000000     0.197300000000     0          
C7       C      0.387100000000     0.981600000000     0.272690000000     0          
H3       H      0.422900000000     0.982500000000     0.268100000000     0          
C8       C      0.228400000000     0.998900000000     0.115300000000     0          
H4       H      0.232800000000     0.003300000000     0.079800000000     0          
C9       C      0.265400000000     0.989400000000     0.196900000000     0          
C10      C      0.180380000000     0.997100000000     0.134820000000     0          
C11      C      0.314560000000     0.977600000000     0.327800000000     0          
H5       H      0.299800000000     0.975600000000     0.360700000000     0          
C12      C      0.285100000000     0.980700000000     0.285100000000     0          
C13      C      0.304200000000     0.984200000000     0.235900000000     0          
C14      C      0.271100000000     0.994500000000     0.146000000000     0          
H6       H      0.304100000000     0.995000000000     0.131400000000     0          
S1       S      0.218080000000     0.981390000000     0.283360000000     0          
O8       O      0.197100000000     0.931300000000     0.298700000000     0          
Zr1      Zr     0.592310000000     0.486590000000     0.011640000000     0          
O2       O      0.948180000000     0.525050000000     0.643130000000     0          
O3       O      0.591230000000     0.508070000000     0.876980000000     0          
O4       O      0.877970000000     0.526030000000     0.589880000000     0          
O5       O      0.643490000000     0.488470000000     0.945000000000     0          
O6       O      0.557860000000     0.544510000000     0.966680000000     0          
C1       C      0.900880000000     0.524860000000     0.632870000000     0          
C2       C      0.634300000000     0.499290000000     0.898480000000     0          
C3       C      0.716700000000     0.512500000000     0.784330000000     0          
C4       C      0.866810000000     0.522600000000     0.678780000000     0          
O7       O      0.698400000000     0.474100000000     0.691430000000     0          
C5       C      0.673580000000     0.508100000000     0.812380000000     0          
H1       H      0.640800000000     0.508400000000     0.797300000000     0          
C6       C      0.854700000000     0.515400000000     0.769600000000     0          
H2       H      0.869000000000     0.513000000000     0.802700000000     0          
C7       C      0.887100000000     0.518400000000     0.727310000000     0          
H3       H      0.922900000000     0.517500000000     0.731900000000     0          
C8       C      0.728400000000     0.501100000000     0.884700000000     0          
H4       H      0.732800000000     0.496700000000     0.920200000000     0          
C9       C      0.765400000000     0.510600000000     0.803100000000     0          
C10      C      0.680380000000     0.502900000000     0.865180000000     0          
C11      C      0.814560000000     0.522400000000     0.672200000000     0          
H5       H      0.799800000000     0.524400000000     0.639300000000     0          
C12      C      0.785100000000     0.519300000000     0.714900000000     0          
C13      C      0.804200000000     0.515800000000     0.764100000000     0          
C14      C      0.771100000000     0.505500000000     0.854000000000     0          
H6       H      0.804100000000     0.505000000000     0.868600000000     0          
S1       S      0.718080000000     0.518610000000     0.716640000000     0          
O8       O      0.697100000000     0.568700000000     0.701300000000     0          
Zr1      Zr     0.907690000000     0.513410000000     0.511640000000     0          
O2       O      0.551820000000     0.474950000000     0.143130000000     0          
O3       O      0.908770000000     0.491930000000     0.376980000000     0          
O4       O      0.622030000000     0.473970000000     0.089880000000     0          
O5       O      0.856510000000     0.511530000000     0.445000000000     0          
O6       O      0.942140000000     0.455490000000     0.466680000000     0          
C1       C      0.599120000000     0.475140000000     0.132870000000     0          
C2       C      0.865700000000     0.500710000000     0.398480000000     0          
C3       C      0.783300000000     0.487500000000     0.284330000000     0          
C4       C      0.633190000000     0.477400000000     0.178780000000     0          
O7       O      0.801600000000     0.525900000000     0.191430000000     0          
C5       C      0.826420000000     0.491900000000     0.312380000000     0          
H1       H      0.859200000000     0.491600000000     0.297300000000     0          
C6       C      0.645300000000     0.484600000000     0.269600000000     0          
H2       H      0.631000000000     0.487000000000     0.302700000000     0          
C7       C      0.612900000000     0.481600000000     0.227310000000     0          
H3       H      0.577100000000     0.482500000000     0.231900000000     0          
C8       C      0.771600000000     0.498900000000     0.384700000000     0          
H4       H      0.767200000000     0.503300000000     0.420200000000     0          
C9       C      0.734600000000     0.489400000000     0.303100000000     0          
C10      C      0.819620000000     0.497100000000     0.365180000000     0          
C11      C      0.685440000000     0.477600000000     0.172200000000     0          
H5       H      0.700200000000     0.475600000000     0.139300000000     0          
C12      C      0.714900000000     0.480700000000     0.214900000000     0          
C13      C      0.695800000000     0.484200000000     0.264100000000     0          
C14      C      0.728900000000     0.494500000000     0.354000000000     0          
H6       H      0.695900000000     0.495000000000     0.368600000000     0          
S1       S      0.781920000000     0.481390000000     0.216640000000     0          
O8       O      0.802900000000     0.431300000000     0.201300000000     0          
Zr1      Zr     0.407690000000     0.986590000000     0.488360000000     0          
O2       O      0.051820000000     0.025050000000     0.856870000000     0          
O3       O      0.408770000000     0.008070000000     0.623020000000     0          
O4       O      0.122030000000     0.026030000000     0.910120000000     0          
O5       O      0.356510000000     0.988470000000     0.555000000000     0          
O6       O      0.442140000000     0.044510000000     0.533320000000     0          
C1       C      0.099120000000     0.024860000000     0.867130000000     0          
C2       C      0.365700000000     0.999290000000     0.601520000000     0          
C3       C      0.283300000000     0.012500000000     0.715670000000     0          
C4       C      0.133190000000     0.022600000000     0.821220000000     0          
O7       O      0.301600000000     0.974100000000     0.808570000000     0          
C5       C      0.326420000000     0.008100000000     0.687620000000     0          
H1       H      0.359200000000     0.008400000000     0.702700000000     0          
C6       C      0.145300000000     0.015400000000     0.730400000000     0          
H2       H      0.131000000000     0.013000000000     0.697300000000     0          
C7       C      0.112900000000     0.018400000000     0.772690000000     0          
H3       H      0.077100000000     0.017500000000     0.768100000000     0          
C8       C      0.271600000000     0.001100000000     0.615300000000     0          
H4       H      0.267200000000     0.996700000000     0.579800000000     0          
C9       C      0.234600000000     0.010600000000     0.696900000000     0          
C10      C      0.319620000000     0.002900000000     0.634820000000     0          
C11      C      0.185440000000     0.022400000000     0.827800000000     0          
H5       H      0.200200000000     0.024400000000     0.860700000000     0          
C12      C      0.214900000000     0.019300000000     0.785100000000     0          
C13      C      0.195800000000     0.015800000000     0.735900000000     0          
C14      C      0.228900000000     0.005500000000     0.646000000000     0          
H6       H      0.195900000000     0.005000000000     0.631400000000     0          
S1       S      0.281920000000     0.018610000000     0.783360000000     0          
O8       O      0.302900000000     0.068700000000     0.798700000000     0          


