data_SURJUM

_audit_creation_method RASPA-1.0
_audit_creation_date 2020-12-14
_audit_author_name 'Rocio Bueno-Perez'

_cell_length_a    20.804
_cell_length_b    20.804
_cell_length_c    20.804
_cell_angle_alpha 90
_cell_angle_beta  90
_cell_angle_gamma 90
_cell_volume      9004.1

_symmetry_cell_setting          triclinic
_symmetry_space_group_name_Hall 'P 1'
_symmetry_space_group_name_H-M  'P 1'
_symmetry_Int_Tables_number     1

_symmetry_equiv_pos_as_xyz 'x,y,z'

loop_
_atom_site_label
_atom_site_type_symbol
_atom_site_fract_x
_atom_site_fract_y
_atom_site_fract_z
_atom_site_charge
C1       C      0.265400000000     0.187300000000     0.017100000000     0          
C2       C      0.265400000000     0.687300000000     0.517100000000     0          
C3       C      0.292500000000     0.622200000000     0.539700000000     0          
C4       C      0.765400000000     0.687300000000     0.017100000000     0          
C5       C      0.792500000000     0.622200000000     0.039700000000     0          
C6       C      0.734600000000     0.312700000000     0.517100000000     0          
C7       C      0.707500000000     0.377800000000     0.539700000000     0          
C8       C      0.234600000000     0.187300000000     0.482900000000     0          
C9       C      0.207500000000     0.122200000000     0.460300000000     0          
C10      C      0.234600000000     0.687300000000     0.982900000000     0          
C11      C      0.765400000000     0.812700000000     0.482900000000     0          
C12      C      0.765400000000     0.312700000000     0.982900000000     0          
C13      C      0.792500000000     0.377800000000     0.960300000000     0          
C14      C      0.017100000000     0.265400000000     0.187300000000     0          
C15      C      0.039700000000     0.292500000000     0.122200000000     0          
C16      C      0.017100000000     0.765400000000     0.687300000000     0          
C17      C      0.517100000000     0.765400000000     0.187300000000     0          
C18      C      0.539700000000     0.792500000000     0.122200000000     0          
C19      C      0.517100000000     0.234600000000     0.812700000000     0          
C20      C      0.982900000000     0.265400000000     0.812700000000     0          
C21      C      0.960300000000     0.292500000000     0.877800000000     0          
C22      C      0.982900000000     0.765400000000     0.312700000000     0          
C23      C      0.960300000000     0.792500000000     0.377800000000     0          
C24      C      0.482900000000     0.265400000000     0.312700000000     0          
C25      C      0.460300000000     0.292500000000     0.377800000000     0          
C26      C      0.482900000000     0.765400000000     0.812700000000     0          
C27      C      0.460300000000     0.792500000000     0.877800000000     0          
C28      C      0.187300000000     0.517100000000     0.765400000000     0          
C29      C      0.122200000000     0.539700000000     0.792500000000     0          
C30      C      0.687300000000     0.017100000000     0.765400000000     0          
C31      C      0.622200000000     0.039700000000     0.792500000000     0          
C32      C      0.812700000000     0.517100000000     0.234600000000     0          
C33      C      0.877800000000     0.539700000000     0.207500000000     0          
C34      C      0.312700000000     0.017100000000     0.234600000000     0          
C35      C      0.812700000000     0.982900000000     0.265400000000     0          
C36      C      0.812700000000     0.482900000000     0.765400000000     0          
C37      C      0.877800000000     0.460300000000     0.792500000000     0          
C38      C      0.312700000000     0.982900000000     0.765400000000     0          
C39      C      0.377800000000     0.960300000000     0.792500000000     0          
C40      C      0.312700000000     0.482900000000     0.265400000000     0          
C41      C      0.187300000000     0.265400000000     0.982900000000     0          
C42      C      0.122200000000     0.292500000000     0.960300000000     0          
C43      C      0.187300000000     0.765400000000     0.482900000000     0          
C44      C      0.687300000000     0.765400000000     0.982900000000     0          
C45      C      0.812700000000     0.234600000000     0.482900000000     0          
C46      C      0.687300000000     0.734600000000     0.517100000000     0          
C47      C      0.622200000000     0.707500000000     0.539700000000     0          
C48      C      0.687300000000     0.234600000000     0.017100000000     0          
C49      C      0.312700000000     0.265400000000     0.517100000000     0          
C50      C      0.312700000000     0.765400000000     0.017100000000     0          
C51      C      0.377800000000     0.792500000000     0.039700000000     0          
C52      C      0.734600000000     0.017100000000     0.187300000000     0          
C53      C      0.707500000000     0.039700000000     0.122200000000     0          
C54      C      0.734600000000     0.517100000000     0.687300000000     0          
C55      C      0.234600000000     0.017100000000     0.687300000000     0          
C56      C      0.234600000000     0.517100000000     0.187300000000     0          
C57      C      0.207500000000     0.539700000000     0.122200000000     0          
C58      C      0.734600000000     0.482900000000     0.312700000000     0          
C59      C      0.234600000000     0.982900000000     0.312700000000     0          
C60      C      0.207500000000     0.960300000000     0.377800000000     0          
C61      C      0.265400000000     0.482900000000     0.687300000000     0          
C62      C      0.765400000000     0.982900000000     0.687300000000     0          
C63      C      0.017100000000     0.187300000000     0.734600000000     0          
C64      C      0.017100000000     0.687300000000     0.234600000000     0          
C65      C      0.517100000000     0.187300000000     0.234600000000     0          
C66      C      0.517100000000     0.687300000000     0.734600000000     0          
C67      C      0.982900000000     0.187300000000     0.265400000000     0          
C68      C      0.982900000000     0.687300000000     0.765400000000     0          
C69      C      0.960300000000     0.622200000000     0.792500000000     0          
C70      C      0.482900000000     0.687300000000     0.265400000000     0          
C71      C      0.482900000000     0.312700000000     0.734600000000     0          
C72      C      0.460300000000     0.377800000000     0.707500000000     0          
C73      C      0.734600000000     0.812700000000     0.982900000000     0          
C74      C      0.707500000000     0.877800000000     0.960300000000     0          
C75      C      0.234600000000     0.812700000000     0.482900000000     0          
C76      C      0.207500000000     0.877800000000     0.460300000000     0          
C77      C      0.234600000000     0.312700000000     0.982900000000     0          
C78      C      0.765400000000     0.187300000000     0.482900000000     0          
C79      C      0.792500000000     0.122200000000     0.460300000000     0          
C80      C      0.265400000000     0.812700000000     0.017100000000     0          
C81      C      0.265400000000     0.312700000000     0.517100000000     0          
C82      C      0.292500000000     0.377800000000     0.539700000000     0          
C83      C      0.734600000000     0.187300000000     0.017100000000     0          
C84      C      0.707500000000     0.122200000000     0.039700000000     0          
C85      C      0.734600000000     0.687300000000     0.517100000000     0          
C86      C      0.982900000000     0.734600000000     0.812700000000     0          
C87      C      0.982900000000     0.234600000000     0.312700000000     0          
C88      C      0.960300000000     0.207500000000     0.377800000000     0          
C89      C      0.482900000000     0.734600000000     0.312700000000     0          
C90      C      0.460300000000     0.707500000000     0.377800000000     0          
C91      C      0.482900000000     0.265400000000     0.687300000000     0          
C92      C      0.017100000000     0.734600000000     0.187300000000     0          
C93      C      0.039700000000     0.707500000000     0.122200000000     0          
C94      C      0.017100000000     0.234600000000     0.687300000000     0          
C95      C      0.039700000000     0.207500000000     0.622200000000     0          
C96      C      0.517100000000     0.734600000000     0.687300000000     0          
C97      C      0.539700000000     0.707500000000     0.622200000000     0          
C98      C      0.517100000000     0.234600000000     0.187300000000     0          
C99      C      0.539700000000     0.207500000000     0.122200000000     0          
C100     C      0.812700000000     0.982900000000     0.734600000000     0          
C101     C      0.877800000000     0.960300000000     0.707500000000     0          
C102     C      0.312700000000     0.482900000000     0.734600000000     0          
C103     C      0.377800000000     0.460300000000     0.707500000000     0          
C104     C      0.187300000000     0.982900000000     0.265400000000     0          
C105     C      0.687300000000     0.482900000000     0.265400000000     0          
C106     C      0.622200000000     0.460300000000     0.292500000000     0          
C107     C      0.187300000000     0.017100000000     0.734600000000     0          
C108     C      0.122200000000     0.039700000000     0.707500000000     0          
C109     C      0.187300000000     0.517100000000     0.234600000000     0          
C110     C      0.687300000000     0.017100000000     0.234600000000     0          
C111     C      0.687300000000     0.517100000000     0.734600000000     0          
C112     C      0.622200000000     0.539700000000     0.707500000000     0          
C113     C      0.812700000000     0.734600000000     0.017100000000     0          
C114     C      0.312700000000     0.734600000000     0.517100000000     0          
C115     C      0.312700000000     0.234600000000     0.017100000000     0          
C116     C      0.377800000000     0.207500000000     0.039700000000     0          
C117     C      0.687300000000     0.265400000000     0.517100000000     0          
C118     C      0.812700000000     0.265400000000     0.982900000000     0          
C119     C      0.812700000000     0.765400000000     0.482900000000     0          
C120     C      0.877800000000     0.792500000000     0.460300000000     0          
C121     C      0.187300000000     0.734600000000     0.982900000000     0          
C122     C      0.122200000000     0.707500000000     0.960300000000     0          
C123     C      0.187300000000     0.234600000000     0.482900000000     0          
C124     C      0.265400000000     0.982900000000     0.812700000000     0          
C125     C      0.265400000000     0.482900000000     0.312700000000     0          
C126     C      0.292500000000     0.460300000000     0.377800000000     0          
C127     C      0.765400000000     0.982900000000     0.312700000000     0          
C128     C      0.792500000000     0.960300000000     0.377800000000     0          
C129     C      0.765400000000     0.482900000000     0.812700000000     0          
C130     C      0.265400000000     0.017100000000     0.187300000000     0          
C131     C      0.292500000000     0.039700000000     0.122200000000     0          
C132     C      0.765400000000     0.517100000000     0.187300000000     0          
C133     C      0.734600000000     0.017100000000     0.812700000000     0          
C134     C      0.234600000000     0.517100000000     0.812700000000     0          
C135     C      0.982900000000     0.812700000000     0.265400000000     0          
C136     C      0.982900000000     0.312700000000     0.765400000000     0          
C137     C      0.482900000000     0.812700000000     0.765400000000     0          
C138     C      0.482900000000     0.312700000000     0.265400000000     0          
C139     C      0.017100000000     0.812700000000     0.734600000000     0          
C140     C      0.039700000000     0.877800000000     0.707500000000     0          
C141     C      0.017100000000     0.312700000000     0.234600000000     0          
C142     C      0.517100000000     0.812700000000     0.234600000000     0          
C143     C      0.517100000000     0.187300000000     0.765400000000     0          
C144     C      0.539700000000     0.122200000000     0.792500000000     0          
Zr145    Zr     0.118950000000     0.000000000000     0.000000000000     0          
Zr146    Zr     0.118950000000     0.500000000000     0.500000000000     0          
Zr147    Zr     0.618950000000     0.000000000000     0.500000000000     0          
Zr148    Zr     0.618950000000     0.500000000000     0.000000000000     0          
Zr149    Zr     0.881050000000     0.000000000000     0.000000000000     0          
Zr150    Zr     0.881050000000     0.500000000000     0.500000000000     0          
Zr151    Zr     0.381050000000     0.000000000000     0.500000000000     0          
Zr152    Zr     0.381050000000     0.500000000000     0.000000000000     0          
Zr153    Zr     0.000000000000     0.118950000000     0.000000000000     0          
Zr154    Zr     0.000000000000     0.618950000000     0.500000000000     0          
Zr155    Zr     0.500000000000     0.118950000000     0.500000000000     0          
Zr156    Zr     0.500000000000     0.618950000000     0.000000000000     0          
Zr157    Zr     0.000000000000     0.881050000000     0.000000000000     0          
Zr158    Zr     0.000000000000     0.381050000000     0.500000000000     0          
Zr159    Zr     0.500000000000     0.881050000000     0.500000000000     0          
Zr160    Zr     0.500000000000     0.381050000000     0.000000000000     0          
Zr161    Zr     0.000000000000     0.000000000000     0.118950000000     0          
Zr162    Zr     0.000000000000     0.500000000000     0.618950000000     0          
Zr163    Zr     0.500000000000     0.000000000000     0.618950000000     0          
Zr164    Zr     0.500000000000     0.500000000000     0.118950000000     0          
Zr165    Zr     0.000000000000     0.000000000000     0.881050000000     0          
Zr166    Zr     0.000000000000     0.500000000000     0.381050000000     0          
Zr167    Zr     0.500000000000     0.000000000000     0.381050000000     0          
Zr168    Zr     0.500000000000     0.500000000000     0.881050000000     0          
O169     O      0.170710000000     0.093640000000     0.000000000000     0          
O170     O      0.170710000000     0.593640000000     0.500000000000     0          
O171     O      0.670710000000     0.093640000000     0.500000000000     0          
O172     O      0.670710000000     0.593640000000     0.000000000000     0          
O173     O      0.829290000000     0.906360000000     0.000000000000     0          
O174     O      0.829290000000     0.406360000000     0.500000000000     0          
O175     O      0.329290000000     0.906360000000     0.500000000000     0          
O176     O      0.329290000000     0.406360000000     0.000000000000     0          
O177     O      0.829290000000     0.093640000000     0.000000000000     0          
O178     O      0.829290000000     0.593640000000     0.500000000000     0          
O179     O      0.329290000000     0.093640000000     0.500000000000     0          
O180     O      0.329290000000     0.593640000000     0.000000000000     0          
O181     O      0.170710000000     0.906360000000     0.000000000000     0          
O182     O      0.170710000000     0.406360000000     0.500000000000     0          
O183     O      0.670710000000     0.906360000000     0.500000000000     0          
O184     O      0.670710000000     0.406360000000     0.000000000000     0          
O185     O      0.000000000000     0.170710000000     0.093640000000     0          
O186     O      0.000000000000     0.670710000000     0.593640000000     0          
O187     O      0.500000000000     0.170710000000     0.593640000000     0          
O188     O      0.500000000000     0.670710000000     0.093640000000     0          
O189     O      0.000000000000     0.829290000000     0.906360000000     0          
O190     O      0.000000000000     0.329290000000     0.406360000000     0          
O191     O      0.500000000000     0.829290000000     0.406360000000     0          
O192     O      0.500000000000     0.329290000000     0.906360000000     0          
O193     O      0.000000000000     0.829290000000     0.093640000000     0          
O194     O      0.000000000000     0.329290000000     0.593640000000     0          
O195     O      0.500000000000     0.829290000000     0.593640000000     0          
O196     O      0.500000000000     0.329290000000     0.093640000000     0          
O197     O      0.000000000000     0.170710000000     0.906360000000     0          
O198     O      0.000000000000     0.670710000000     0.406360000000     0          
O199     O      0.500000000000     0.170710000000     0.406360000000     0          
O200     O      0.500000000000     0.670710000000     0.906360000000     0          
O201     O      0.093640000000     0.000000000000     0.170710000000     0          
O202     O      0.093640000000     0.500000000000     0.670710000000     0          
O203     O      0.593640000000     0.000000000000     0.670710000000     0          
O204     O      0.593640000000     0.500000000000     0.170710000000     0          
O205     O      0.906360000000     0.000000000000     0.829290000000     0          
O206     O      0.906360000000     0.500000000000     0.329290000000     0          
O207     O      0.406360000000     0.000000000000     0.329290000000     0          
O208     O      0.406360000000     0.500000000000     0.829290000000     0          
O209     O      0.093640000000     0.000000000000     0.829290000000     0          
O210     O      0.093640000000     0.500000000000     0.329290000000     0          
O211     O      0.593640000000     0.000000000000     0.329290000000     0          
O212     O      0.593640000000     0.500000000000     0.829290000000     0          
O213     O      0.906360000000     0.000000000000     0.170710000000     0          
O214     O      0.906360000000     0.500000000000     0.670710000000     0          
O215     O      0.406360000000     0.000000000000     0.670710000000     0          
O216     O      0.406360000000     0.500000000000     0.170710000000     0          
O217     O      0.093640000000     0.170710000000     0.000000000000     0          
O218     O      0.093640000000     0.670710000000     0.500000000000     0          
O219     O      0.593640000000     0.170710000000     0.500000000000     0          
O220     O      0.593640000000     0.670710000000     0.000000000000     0          
O221     O      0.906360000000     0.829290000000     0.000000000000     0          
O222     O      0.906360000000     0.329290000000     0.500000000000     0          
O223     O      0.406360000000     0.829290000000     0.500000000000     0          
O224     O      0.406360000000     0.329290000000     0.000000000000     0          
O225     O      0.093640000000     0.829290000000     0.000000000000     0          
O226     O      0.093640000000     0.329290000000     0.500000000000     0          
O227     O      0.593640000000     0.829290000000     0.500000000000     0          
O228     O      0.593640000000     0.329290000000     0.000000000000     0          
O229     O      0.906360000000     0.170710000000     0.000000000000     0          
O230     O      0.906360000000     0.670710000000     0.500000000000     0          
O231     O      0.406360000000     0.170710000000     0.500000000000     0          
O232     O      0.406360000000     0.670710000000     0.000000000000     0          
O233     O      0.170710000000     0.000000000000     0.906360000000     0          
O234     O      0.170710000000     0.500000000000     0.406360000000     0          
O235     O      0.670710000000     0.000000000000     0.406360000000     0          
O236     O      0.670710000000     0.500000000000     0.906360000000     0          
O237     O      0.829290000000     0.000000000000     0.093640000000     0          
O238     O      0.829290000000     0.500000000000     0.593640000000     0          
O239     O      0.329290000000     0.000000000000     0.593640000000     0          
O240     O      0.329290000000     0.500000000000     0.093640000000     0          
O241     O      0.829290000000     0.000000000000     0.906360000000     0          
O242     O      0.829290000000     0.500000000000     0.406360000000     0          
O243     O      0.329290000000     0.000000000000     0.406360000000     0          
O244     O      0.329290000000     0.500000000000     0.906360000000     0          
O245     O      0.170710000000     0.000000000000     0.093640000000     0          
O246     O      0.170710000000     0.500000000000     0.593640000000     0          
O247     O      0.670710000000     0.000000000000     0.593640000000     0          
O248     O      0.670710000000     0.500000000000     0.093640000000     0          
O249     O      0.000000000000     0.093640000000     0.829290000000     0          
O250     O      0.000000000000     0.593640000000     0.329290000000     0          
O251     O      0.500000000000     0.093640000000     0.329290000000     0          
O252     O      0.500000000000     0.593640000000     0.829290000000     0          
O253     O      0.000000000000     0.906360000000     0.170710000000     0          
O254     O      0.000000000000     0.406360000000     0.670710000000     0          
O255     O      0.500000000000     0.906360000000     0.670710000000     0          
O256     O      0.500000000000     0.406360000000     0.170710000000     0          
O257     O      0.000000000000     0.093640000000     0.170710000000     0          
O258     O      0.000000000000     0.593640000000     0.670710000000     0          
O259     O      0.500000000000     0.093640000000     0.670710000000     0          
O260     O      0.500000000000     0.593640000000     0.170710000000     0          
O261     O      0.000000000000     0.906360000000     0.829290000000     0          
O262     O      0.000000000000     0.406360000000     0.329290000000     0          
O263     O      0.500000000000     0.906360000000     0.329290000000     0          
O264     O      0.500000000000     0.406360000000     0.829290000000     0          
C265     C      0.151680000000     0.151680000000     0.000000000000     0          
C266     C      0.202630000000     0.202630000000     0.000000000000     0          
C267     C      0.151680000000     0.651680000000     0.500000000000     0          
C268     C      0.202630000000     0.702630000000     0.500000000000     0          
C269     C      0.651680000000     0.151680000000     0.500000000000     0          
C270     C      0.702630000000     0.202630000000     0.500000000000     0          
C271     C      0.651680000000     0.651680000000     0.000000000000     0          
C272     C      0.702630000000     0.702630000000     0.000000000000     0          
C273     C      0.848320000000     0.848320000000     0.000000000000     0          
C274     C      0.797370000000     0.797370000000     0.000000000000     0          
C275     C      0.848320000000     0.348320000000     0.500000000000     0          
C276     C      0.797370000000     0.297370000000     0.500000000000     0          
C277     C      0.348320000000     0.848320000000     0.500000000000     0          
C278     C      0.297370000000     0.797370000000     0.500000000000     0          
C279     C      0.348320000000     0.348320000000     0.000000000000     0          
C280     C      0.297370000000     0.297370000000     0.000000000000     0          
C281     C      0.848320000000     0.151680000000     0.000000000000     0          
C282     C      0.797370000000     0.202630000000     0.000000000000     0          
C283     C      0.848320000000     0.651680000000     0.500000000000     0          
C284     C      0.797370000000     0.702630000000     0.500000000000     0          
C285     C      0.348320000000     0.151680000000     0.500000000000     0          
C286     C      0.297370000000     0.202630000000     0.500000000000     0          
C287     C      0.348320000000     0.651680000000     0.000000000000     0          
C288     C      0.297370000000     0.702630000000     0.000000000000     0          
C289     C      0.151680000000     0.848320000000     0.000000000000     0          
C290     C      0.202630000000     0.797370000000     0.000000000000     0          
C291     C      0.151680000000     0.348320000000     0.500000000000     0          
C292     C      0.202630000000     0.297370000000     0.500000000000     0          
C293     C      0.651680000000     0.848320000000     0.500000000000     0          
C294     C      0.702630000000     0.797370000000     0.500000000000     0          
C295     C      0.651680000000     0.348320000000     0.000000000000     0          
C296     C      0.702630000000     0.297370000000     0.000000000000     0          
C297     C      0.000000000000     0.151680000000     0.151680000000     0          
C298     C      0.000000000000     0.202630000000     0.202630000000     0          
C299     C      0.000000000000     0.651680000000     0.651680000000     0          
C300     C      0.000000000000     0.702630000000     0.702630000000     0          
C301     C      0.500000000000     0.151680000000     0.651680000000     0          
C302     C      0.500000000000     0.202630000000     0.702630000000     0          
C303     C      0.500000000000     0.651680000000     0.151680000000     0          
C304     C      0.500000000000     0.702630000000     0.202630000000     0          
C305     C      0.000000000000     0.848320000000     0.848320000000     0          
C306     C      0.000000000000     0.797370000000     0.797370000000     0          
C307     C      0.000000000000     0.348320000000     0.348320000000     0          
C308     C      0.000000000000     0.297370000000     0.297370000000     0          
C309     C      0.500000000000     0.848320000000     0.348320000000     0          
C310     C      0.500000000000     0.797370000000     0.297370000000     0          
C311     C      0.500000000000     0.348320000000     0.848320000000     0          
C312     C      0.500000000000     0.297370000000     0.797370000000     0          
C313     C      0.000000000000     0.848320000000     0.151680000000     0          
C314     C      0.000000000000     0.797370000000     0.202630000000     0          
C315     C      0.000000000000     0.348320000000     0.651680000000     0          
C316     C      0.000000000000     0.297370000000     0.702630000000     0          
C317     C      0.500000000000     0.848320000000     0.651680000000     0          
C318     C      0.500000000000     0.797370000000     0.702630000000     0          
C319     C      0.500000000000     0.348320000000     0.151680000000     0          
C320     C      0.500000000000     0.297370000000     0.202630000000     0          
C321     C      0.000000000000     0.151680000000     0.848320000000     0          
C322     C      0.000000000000     0.202630000000     0.797370000000     0          
C323     C      0.000000000000     0.651680000000     0.348320000000     0          
C324     C      0.000000000000     0.702630000000     0.297370000000     0          
C325     C      0.500000000000     0.151680000000     0.348320000000     0          
C326     C      0.500000000000     0.202630000000     0.297370000000     0          
C327     C      0.500000000000     0.651680000000     0.848320000000     0          
C328     C      0.500000000000     0.702630000000     0.797370000000     0          
C329     C      0.151680000000     0.000000000000     0.151680000000     0          
C330     C      0.202630000000     0.000000000000     0.202630000000     0          
C331     C      0.151680000000     0.500000000000     0.651680000000     0          
C332     C      0.202630000000     0.500000000000     0.702630000000     0          
C333     C      0.651680000000     0.000000000000     0.651680000000     0          
C334     C      0.702630000000     0.000000000000     0.702630000000     0          
C335     C      0.651680000000     0.500000000000     0.151680000000     0          
C336     C      0.702630000000     0.500000000000     0.202630000000     0          
C337     C      0.848320000000     0.000000000000     0.848320000000     0          
C338     C      0.797370000000     0.000000000000     0.797370000000     0          
C339     C      0.848320000000     0.500000000000     0.348320000000     0          
C340     C      0.797370000000     0.500000000000     0.297370000000     0          
C341     C      0.348320000000     0.000000000000     0.348320000000     0          
C342     C      0.297370000000     0.000000000000     0.297370000000     0          
C343     C      0.348320000000     0.500000000000     0.848320000000     0          
C344     C      0.297370000000     0.500000000000     0.797370000000     0          
C345     C      0.151680000000     0.000000000000     0.848320000000     0          
C346     C      0.202630000000     0.000000000000     0.797370000000     0          
C347     C      0.151680000000     0.500000000000     0.348320000000     0          
C348     C      0.202630000000     0.500000000000     0.297370000000     0          
C349     C      0.651680000000     0.000000000000     0.348320000000     0          
C350     C      0.702630000000     0.000000000000     0.297370000000     0          
C351     C      0.651680000000     0.500000000000     0.848320000000     0          
C352     C      0.702630000000     0.500000000000     0.797370000000     0          
C353     C      0.848320000000     0.000000000000     0.151680000000     0          
C354     C      0.797370000000     0.000000000000     0.202630000000     0          
C355     C      0.848320000000     0.500000000000     0.651680000000     0          
C356     C      0.797370000000     0.500000000000     0.702630000000     0          
C357     C      0.348320000000     0.000000000000     0.651680000000     0          
C358     C      0.297370000000     0.000000000000     0.702630000000     0          
C359     C      0.348320000000     0.500000000000     0.151680000000     0          
C360     C      0.297370000000     0.500000000000     0.202630000000     0          
O361     O      0.050480000000     0.050480000000     0.050480000000     0          
O362     O      0.050480000000     0.550480000000     0.550480000000     0          
O363     O      0.550480000000     0.050480000000     0.550480000000     0          
O364     O      0.550480000000     0.550480000000     0.050480000000     0          
O365     O      0.949520000000     0.949520000000     0.050480000000     0          
O366     O      0.949520000000     0.449520000000     0.550480000000     0          
O367     O      0.449520000000     0.949520000000     0.550480000000     0          
O368     O      0.449520000000     0.449520000000     0.050480000000     0          
O369     O      0.949520000000     0.050480000000     0.949520000000     0          
O370     O      0.949520000000     0.550480000000     0.449520000000     0          
O371     O      0.449520000000     0.050480000000     0.449520000000     0          
O372     O      0.449520000000     0.550480000000     0.949520000000     0          
O373     O      0.050480000000     0.949520000000     0.949520000000     0          
O374     O      0.050480000000     0.449520000000     0.449520000000     0          
O375     O      0.550480000000     0.949520000000     0.449520000000     0          
O376     O      0.550480000000     0.449520000000     0.949520000000     0          
O377     O      0.050480000000     0.050480000000     0.949520000000     0          
O378     O      0.050480000000     0.550480000000     0.449520000000     0          
O379     O      0.550480000000     0.050480000000     0.449520000000     0          
O380     O      0.550480000000     0.550480000000     0.949520000000     0          
O381     O      0.949520000000     0.949520000000     0.949520000000     0          
O382     O      0.949520000000     0.449520000000     0.449520000000     0          
O383     O      0.449520000000     0.949520000000     0.449520000000     0          
O384     O      0.449520000000     0.449520000000     0.949520000000     0          
O385     O      0.050480000000     0.949520000000     0.050480000000     0          
O386     O      0.050480000000     0.449520000000     0.550480000000     0          
O387     O      0.550480000000     0.949520000000     0.550480000000     0          
O388     O      0.550480000000     0.449520000000     0.050480000000     0          
O389     O      0.949520000000     0.050480000000     0.050480000000     0          
O390     O      0.949520000000     0.550480000000     0.550480000000     0          
O391     O      0.449520000000     0.050480000000     0.550480000000     0          
O392     O      0.449520000000     0.550480000000     0.050480000000     0          
H393     H      0.805090000000     0.591520000000     0.996080000000     0          
H394     H      0.754910000000     0.596300000000     0.070010000000     0          
H395     H      0.837550000000     0.630610000000     0.069740000000     0          
H396     H      0.669870000000     0.369390000000     0.578640000000     0          
H397     H      0.684420000000     0.403690000000     0.497280000000     0          
H398     H      0.748160000000     0.408490000000     0.559900000000     0          
H399     H      0.231760000000     0.081680000000     0.488090000000     0          
H400     H      0.217210000000     0.115980000000     0.406730000000     0          
H401     H      0.153470000000     0.120770000000     0.469350000000     0          
H402     H      0.793280000000     0.379240000000     0.905530000000     0          
H403     H      0.843460000000     0.384010000000     0.979460000000     0          
H404     H      0.760820000000     0.418320000000     0.979190000000     0          
H405     H      0.083670000000     0.253830000000     0.965060000000     0          
H406     H      0.126090000000     0.308050000000     0.907900000000     0          
H407     H      0.108660000000     0.335670000000     0.991210000000     0          
H408     H      0.628610000000     0.655460000000     0.555610000000     0          
H409     H      0.586190000000     0.709690000000     0.498450000000     0          
H410     H      0.603620000000     0.737300000000     0.581760000000     0          
H411     H      0.404440000000     0.814070000000     0.996950000000     0          
H412     H      0.407820000000     0.752150000000     0.061460000000     0          
H413     H      0.369320000000     0.831330000000     0.077420000000     0          
H414     H      0.656540000000     0.884010000000     0.979460000000     0          
H415     H      0.706720000000     0.879240000000     0.905530000000     0          
H416     H      0.739180000000     0.918320000000     0.979190000000     0          
H417     H      0.156540000000     0.884010000000     0.479460000000     0          
H418     H      0.206720000000     0.879240000000     0.405530000000     0          
H419     H      0.239180000000     0.918320000000     0.479190000000     0          
H420     H      0.782790000000     0.115980000000     0.406730000000     0          
H421     H      0.768240000000     0.081680000000     0.488090000000     0          
H422     H      0.846530000000     0.120770000000     0.469350000000     0          
H423     H      0.315580000000     0.403690000000     0.497280000000     0          
H424     H      0.330130000000     0.369390000000     0.578640000000     0          
H425     H      0.251840000000     0.408490000000     0.559900000000     0          
H426     H      0.745090000000     0.096300000000     0.070010000000     0          
H427     H      0.694910000000     0.091520000000     0.996080000000     0          
H428     H      0.662450000000     0.130610000000     0.069740000000     0          
H429     H      0.413810000000     0.209690000000     0.998450000000     0          
H430     H      0.371390000000     0.155460000000     0.055610000000     0          
H431     H      0.396380000000     0.237300000000     0.081760000000     0          
H432     H      0.873910000000     0.808050000000     0.407900000000     0          
H433     H      0.916330000000     0.753830000000     0.465060000000     0          
H434     H      0.891340000000     0.835670000000     0.491210000000     0          
H435     H      0.120100000000     0.653780000000     0.970910000000     0          
H436     H      0.116720000000     0.715700000000     0.906400000000     0          
H437     H      0.081600000000     0.732960000000     0.986870000000     0          
H438     H      0.000150000000     0.323750000000     0.100700000000     0          
H439     H      0.050860000000     0.251110000000     0.088070000000     0          
H440     H      0.084810000000     0.322700000000     0.129660000000     0          
H441     H      0.500150000000     0.823750000000     0.100700000000     0          
H442     H      0.550860000000     0.751110000000     0.088070000000     0          
H443     H      0.584810000000     0.822700000000     0.129660000000     0          
H444     H      0.935640000000     0.252870000000     0.906510000000     0          
H445     H      0.925000000000     0.333530000000     0.869240000000     0          
H446     H      0.003540000000     0.311150000000     0.905820000000     0          
H447     H      0.935640000000     0.752870000000     0.406510000000     0          
H448     H      0.925000000000     0.833530000000     0.369240000000     0          
H449     H      0.003540000000     0.811150000000     0.405820000000     0          
H450     H      0.435640000000     0.252870000000     0.406510000000     0          
H451     H      0.425000000000     0.333530000000     0.369240000000     0          
H452     H      0.503540000000     0.311150000000     0.405820000000     0          
H453     H      0.435640000000     0.752870000000     0.906510000000     0          
H454     H      0.425000000000     0.833530000000     0.869240000000     0          
H455     H      0.503540000000     0.811150000000     0.905820000000     0          
H456     H      0.999850000000     0.600700000000     0.823750000000     0          
H457     H      0.949140000000     0.588070000000     0.751110000000     0          
H458     H      0.915190000000     0.629660000000     0.822700000000     0          
H459     H      0.409600000000     0.388420000000     0.725380000000     0          
H460     H      0.460310000000     0.375790000000     0.652740000000     0          
H461     H      0.494260000000     0.417370000000     0.724330000000     0          
H462     H      0.960310000000     0.152740000000     0.375790000000     0          
H463     H      0.909600000000     0.225380000000     0.388420000000     0          
H464     H      0.994260000000     0.224330000000     0.417370000000     0          
H465     H      0.460310000000     0.652740000000     0.375790000000     0          
H466     H      0.409600000000     0.725380000000     0.388420000000     0          
H467     H      0.494260000000     0.724330000000     0.417370000000     0          
H468     H      0.015550000000     0.735160000000     0.081530000000     0          
H469     H      0.026190000000     0.654500000000     0.118790000000     0          
H470     H      0.094090000000     0.712780000000     0.118110000000     0          
H471     H      0.015550000000     0.235160000000     0.581530000000     0          
H472     H      0.026190000000     0.154500000000     0.618790000000     0          
H473     H      0.094090000000     0.212780000000     0.618110000000     0          
H474     H      0.515550000000     0.735160000000     0.581530000000     0          
H475     H      0.526190000000     0.654500000000     0.618790000000     0          
H476     H      0.594090000000     0.712780000000     0.618110000000     0          
H477     H      0.515550000000     0.235160000000     0.081530000000     0          
H478     H      0.526190000000     0.154500000000     0.118790000000     0          
H479     H      0.594090000000     0.212780000000     0.118110000000     0          
H480     H      0.039690000000     0.875790000000     0.652740000000     0          
H481     H      0.090400000000     0.888420000000     0.725380000000     0          
H482     H      0.005740000000     0.917370000000     0.724330000000     0          
H483     H      0.550860000000     0.088070000000     0.751110000000     0          
H484     H      0.500150000000     0.100700000000     0.823750000000     0          
H485     H      0.584810000000     0.129660000000     0.822700000000     0          
H486     H      0.095560000000     0.496950000000     0.814070000000     0          
H487     H      0.092180000000     0.561460000000     0.752150000000     0          
H488     H      0.130680000000     0.577420000000     0.831330000000     0          
H489     H      0.595560000000     0.996950000000     0.814070000000     0          
H490     H      0.592180000000     0.061460000000     0.752150000000     0          
H491     H      0.630680000000     0.077420000000     0.831330000000     0          
H492     H      0.871390000000     0.555610000000     0.155460000000     0          
H493     H      0.913810000000     0.498450000000     0.209690000000     0          
H494     H      0.896380000000     0.581760000000     0.237300000000     0          
H495     H      0.916330000000     0.465060000000     0.753830000000     0          
H496     H      0.873910000000     0.407900000000     0.808050000000     0          
H497     H      0.891340000000     0.491210000000     0.835670000000     0          
H498     H      0.416330000000     0.965060000000     0.753830000000     0          
H499     H      0.373910000000     0.907900000000     0.808050000000     0          
H500     H      0.391340000000     0.991210000000     0.835670000000     0          
H501     H      0.694910000000     0.996080000000     0.091520000000     0          
H502     H      0.745090000000     0.070010000000     0.096300000000     0          
H503     H      0.662450000000     0.069740000000     0.130610000000     0          
H504     H      0.194910000000     0.496080000000     0.091520000000     0          
H505     H      0.245090000000     0.570010000000     0.096300000000     0          
H506     H      0.162450000000     0.569740000000     0.130610000000     0          
H507     H      0.206720000000     0.905530000000     0.379240000000     0          
H508     H      0.156540000000     0.979460000000     0.384010000000     0          
H509     H      0.239180000000     0.979190000000     0.418320000000     0          
H510     H      0.879900000000     0.970910000000     0.653780000000     0          
H511     H      0.883280000000     0.906400000000     0.715700000000     0          
H512     H      0.918400000000     0.986870000000     0.732960000000     0          
H513     H      0.379900000000     0.470910000000     0.653780000000     0          
H514     H      0.383280000000     0.406400000000     0.715700000000     0          
H515     H      0.418400000000     0.486870000000     0.732960000000     0          
H516     H      0.626090000000     0.407900000000     0.308050000000     0          
H517     H      0.583670000000     0.465060000000     0.253830000000     0          
H518     H      0.608660000000     0.491210000000     0.335670000000     0          
H519     H      0.086190000000     0.998450000000     0.709690000000     0          
H520     H      0.128610000000     0.055610000000     0.655460000000     0          
H521     H      0.103620000000     0.081760000000     0.737300000000     0          
H522     H      0.586190000000     0.498450000000     0.709690000000     0          
H523     H      0.628610000000     0.555610000000     0.655460000000     0          
H524     H      0.603620000000     0.581760000000     0.737300000000     0          
H525     H      0.343460000000     0.479460000000     0.384010000000     0          
H526     H      0.293280000000     0.405530000000     0.379240000000     0          
H527     H      0.260820000000     0.479190000000     0.418320000000     0          
H528     H      0.843460000000     0.979460000000     0.384010000000     0          
H529     H      0.793280000000     0.905530000000     0.379240000000     0          
H530     H      0.760820000000     0.979190000000     0.418320000000     0          
H531     H      0.254910000000     0.070010000000     0.096300000000     0          
H532     H      0.305090000000     0.996080000000     0.091520000000     0          
H533     H      0.337550000000     0.069740000000     0.130610000000     0          
H534     H      0.278190000000     0.135900000000     0.031150000000     0          
H535     H      0.221810000000     0.635900000000     0.968850000000     0          
H536     H      0.778190000000     0.864100000000     0.468850000000     0          
H537     H      0.031150000000     0.778190000000     0.635900000000     0          
H538     H      0.531150000000     0.221810000000     0.864100000000     0          
H539     H      0.364100000000     0.031150000000     0.221810000000     0          
H540     H      0.864100000000     0.968850000000     0.278190000000     0          
H541     H      0.364100000000     0.468850000000     0.278190000000     0          
H542     H      0.135900000000     0.778190000000     0.468850000000     0          
H543     H      0.635900000000     0.778190000000     0.968850000000     0          
H544     H      0.864100000000     0.221810000000     0.468850000000     0          
H545     H      0.635900000000     0.221810000000     0.031150000000     0          
H546     H      0.364100000000     0.278190000000     0.531150000000     0          
H547     H      0.721810000000     0.531150000000     0.635900000000     0          
H548     H      0.221810000000     0.031150000000     0.635900000000     0          
H549     H      0.721810000000     0.468850000000     0.364100000000     0          
H550     H      0.278190000000     0.468850000000     0.635900000000     0          
H551     H      0.778190000000     0.968850000000     0.635900000000     0          
H552     H      0.031150000000     0.135900000000     0.721810000000     0          
H553     H      0.031150000000     0.635900000000     0.221810000000     0          
H554     H      0.531150000000     0.135900000000     0.221810000000     0          
H555     H      0.531150000000     0.635900000000     0.721810000000     0          
H556     H      0.968850000000     0.135900000000     0.278190000000     0          
H557     H      0.468850000000     0.635900000000     0.278190000000     0          
H558     H      0.221810000000     0.364100000000     0.968850000000     0          
H559     H      0.278190000000     0.864100000000     0.031150000000     0          
H560     H      0.721810000000     0.635900000000     0.531150000000     0          
H561     H      0.968850000000     0.721810000000     0.864100000000     0          
H562     H      0.468850000000     0.278190000000     0.635900000000     0          
H563     H      0.135900000000     0.968850000000     0.278190000000     0          
H564     H      0.135900000000     0.531150000000     0.221810000000     0          
H565     H      0.635900000000     0.031150000000     0.221810000000     0          
H566     H      0.864100000000     0.721810000000     0.031150000000     0          
H567     H      0.364100000000     0.721810000000     0.531150000000     0          
H568     H      0.635900000000     0.278190000000     0.531150000000     0          
H569     H      0.864100000000     0.278190000000     0.968850000000     0          
H570     H      0.135900000000     0.221810000000     0.468850000000     0          
H571     H      0.278190000000     0.968850000000     0.864100000000     0          
H572     H      0.778190000000     0.468850000000     0.864100000000     0          
H573     H      0.778190000000     0.531150000000     0.135900000000     0          
H574     H      0.721810000000     0.031150000000     0.864100000000     0          
H575     H      0.221810000000     0.531150000000     0.864100000000     0          
H576     H      0.968850000000     0.864100000000     0.278190000000     0          
H577     H      0.968850000000     0.364100000000     0.778190000000     0          
H578     H      0.468850000000     0.864100000000     0.778190000000     0          
H579     H      0.468850000000     0.364100000000     0.278190000000     0          
H580     H      0.031150000000     0.364100000000     0.221810000000     0          
H581     H      0.531150000000     0.864100000000     0.221810000000     0          


