data_SURKEX

_audit_creation_method RASPA-1.0
_audit_creation_date 2020-12-11
_audit_author_name 'Rocio Bueno-Perez'

_cell_length_a    20.7964
_cell_length_b    20.7964
_cell_length_c    20.7964
_cell_angle_alpha 90
_cell_angle_beta  90
_cell_angle_gamma 90
_cell_volume      8994.24

_symmetry_cell_setting          triclinic
_symmetry_space_group_name_Hall 'P 1'
_symmetry_space_group_name_H-M  'P 1'
_symmetry_Int_Tables_number     1

_symmetry_equiv_pos_as_xyz 'x,y,z'

loop_
_atom_site_label
_atom_site_type_symbol
_atom_site_fract_x
_atom_site_fract_y
_atom_site_fract_z
_atom_site_charge
O1       O      0.806600000000     0.092800000000     0.550900000000     0          
O2       O      0.693400000000     0.907200000000     0.050900000000     0          
O3       O      0.193400000000     0.407200000000     0.050900000000     0          
O4       O      0.193400000000     0.092800000000     0.449100000000     0          
O5       O      0.306600000000     0.907200000000     0.949100000000     0          
O6       O      0.550900000000     0.693400000000     0.407200000000     0          
O7       O      0.550900000000     0.193400000000     0.907200000000     0          
O8       O      0.949100000000     0.693400000000     0.092800000000     0          
O9       O      0.092800000000     0.550900000000     0.806600000000     0          
O10      O      0.907200000000     0.050900000000     0.693400000000     0          
O11      O      0.907200000000     0.550900000000     0.193400000000     0          
O12      O      0.092800000000     0.449100000000     0.193400000000     0          
O13      O      0.092800000000     0.806600000000     0.449100000000     0          
O14      O      0.592800000000     0.693400000000     0.550900000000     0          
O15      O      0.907200000000     0.306600000000     0.050900000000     0          
O16      O      0.306600000000     0.050900000000     0.907200000000     0          
O17      O      0.806600000000     0.050900000000     0.407200000000     0          
O18      O      0.693400000000     0.550900000000     0.592800000000     0          
O19      O      0.306600000000     0.949100000000     0.092800000000     0          
O20      O      0.550900000000     0.592800000000     0.693400000000     0          
O21      O      0.050900000000     0.407200000000     0.806600000000     0          
O22      O      0.550900000000     0.407200000000     0.306600000000     0          
O23      O      0.949100000000     0.092800000000     0.306600000000     0          
O24      O      0.949100000000     0.907200000000     0.693400000000     0          
O25      O      0.693400000000     0.907200000000     0.949100000000     0          
O26      O      0.193400000000     0.407200000000     0.949100000000     0          
O27      O      0.806600000000     0.092800000000     0.449100000000     0          
O28      O      0.306600000000     0.907200000000     0.050900000000     0          
O29      O      0.193400000000     0.092800000000     0.550900000000     0          
O30      O      0.449100000000     0.693400000000     0.407200000000     0          
O31      O      0.449100000000     0.193400000000     0.907200000000     0          
O32      O      0.050900000000     0.693400000000     0.092800000000     0          
O33      O      0.907200000000     0.949100000000     0.693400000000     0          
O34      O      0.907200000000     0.449100000000     0.193400000000     0          
O35      O      0.092800000000     0.449100000000     0.806600000000     0          
O36      O      0.092800000000     0.550900000000     0.193400000000     0          
O37      O      0.092800000000     0.806600000000     0.550900000000     0          
O38      O      0.907200000000     0.306600000000     0.949100000000     0          
O39      O      0.592800000000     0.693400000000     0.449100000000     0          
O40      O      0.693400000000     0.449100000000     0.592800000000     0          
O41      O      0.306600000000     0.949100000000     0.907200000000     0          
O42      O      0.806600000000     0.949100000000     0.407200000000     0          
O43      O      0.306600000000     0.050900000000     0.092800000000     0          
O44      O      0.949100000000     0.407200000000     0.806600000000     0          
O45      O      0.449100000000     0.407200000000     0.306600000000     0          
O46      O      0.449100000000     0.592800000000     0.693400000000     0          
O47      O      0.050900000000     0.907200000000     0.693400000000     0          
O48      O      0.050900000000     0.092800000000     0.306600000000     0          
Zr49     Zr     0.119100000000     0.000000000000     0.000000000000     0          
Zr50     Zr     0.119100000000     0.500000000000     0.500000000000     0          
Zr51     Zr     0.619100000000     0.000000000000     0.500000000000     0          
Zr52     Zr     0.619100000000     0.500000000000     0.000000000000     0          
Zr53     Zr     0.880900000000     0.000000000000     0.000000000000     0          
Zr54     Zr     0.880900000000     0.500000000000     0.500000000000     0          
Zr55     Zr     0.380900000000     0.000000000000     0.500000000000     0          
Zr56     Zr     0.380900000000     0.500000000000     0.000000000000     0          
Zr57     Zr     0.000000000000     0.119100000000     0.000000000000     0          
Zr58     Zr     0.000000000000     0.619100000000     0.500000000000     0          
Zr59     Zr     0.500000000000     0.119100000000     0.500000000000     0          
Zr60     Zr     0.500000000000     0.619100000000     0.000000000000     0          
Zr61     Zr     0.000000000000     0.880900000000     0.000000000000     0          
Zr62     Zr     0.000000000000     0.380900000000     0.500000000000     0          
Zr63     Zr     0.500000000000     0.880900000000     0.500000000000     0          
Zr64     Zr     0.500000000000     0.380900000000     0.000000000000     0          
Zr65     Zr     0.000000000000     0.000000000000     0.119100000000     0          
Zr66     Zr     0.000000000000     0.500000000000     0.619100000000     0          
Zr67     Zr     0.500000000000     0.000000000000     0.619100000000     0          
Zr68     Zr     0.500000000000     0.500000000000     0.119100000000     0          
Zr69     Zr     0.000000000000     0.000000000000     0.880900000000     0          
Zr70     Zr     0.000000000000     0.500000000000     0.380900000000     0          
Zr71     Zr     0.500000000000     0.000000000000     0.380900000000     0          
Zr72     Zr     0.500000000000     0.500000000000     0.880900000000     0          
O73      O      0.170920000000     0.093810000000     0.000000000000     0          
C74      C      0.267700000000     0.185100000000     0.000000000000     0          
O75      O      0.170920000000     0.593810000000     0.500000000000     0          
C76      C      0.267700000000     0.685100000000     0.500000000000     0          
O77      O      0.670920000000     0.093810000000     0.500000000000     0          
C78      C      0.767700000000     0.185100000000     0.500000000000     0          
N79      N      0.793800000000     0.119100000000     0.500000000000     0          
O80      O      0.670920000000     0.593810000000     0.000000000000     0          
C81      C      0.767700000000     0.685100000000     0.000000000000     0          
O82      O      0.829080000000     0.906190000000     0.000000000000     0          
C83      C      0.732300000000     0.814900000000     0.000000000000     0          
N84      N      0.706200000000     0.880900000000     0.000000000000     0          
O85      O      0.829080000000     0.406190000000     0.500000000000     0          
C86      C      0.732300000000     0.314900000000     0.500000000000     0          
O87      O      0.329080000000     0.906190000000     0.500000000000     0          
C88      C      0.232300000000     0.814900000000     0.500000000000     0          
O89      O      0.329080000000     0.406190000000     0.000000000000     0          
C90      C      0.232300000000     0.314900000000     0.000000000000     0          
N91      N      0.206200000000     0.380900000000     0.000000000000     0          
O92      O      0.829080000000     0.093810000000     0.000000000000     0          
C93      C      0.732300000000     0.185100000000     0.000000000000     0          
O94      O      0.829080000000     0.593810000000     0.500000000000     0          
C95      C      0.732300000000     0.685100000000     0.500000000000     0          
O96      O      0.329080000000     0.093810000000     0.500000000000     0          
C97      C      0.232300000000     0.185100000000     0.500000000000     0          
N98      N      0.206200000000     0.119100000000     0.500000000000     0          
O99      O      0.329080000000     0.593810000000     0.000000000000     0          
C100     C      0.232300000000     0.685100000000     0.000000000000     0          
O101     O      0.170920000000     0.906190000000     0.000000000000     0          
C102     C      0.267700000000     0.814900000000     0.000000000000     0          
N103     N      0.293800000000     0.880900000000     0.000000000000     0          
O104     O      0.170920000000     0.406190000000     0.500000000000     0          
C105     C      0.267700000000     0.314900000000     0.500000000000     0          
O106     O      0.670920000000     0.906190000000     0.500000000000     0          
C107     C      0.767700000000     0.814900000000     0.500000000000     0          
O108     O      0.670920000000     0.406190000000     0.000000000000     0          
C109     C      0.767700000000     0.314900000000     0.000000000000     0          
O110     O      0.000000000000     0.170920000000     0.093810000000     0          
C111     C      0.000000000000     0.267700000000     0.185100000000     0          
O112     O      0.000000000000     0.670920000000     0.593810000000     0          
C113     C      0.000000000000     0.767700000000     0.685100000000     0          
O114     O      0.500000000000     0.170920000000     0.593810000000     0          
C115     C      0.500000000000     0.267700000000     0.685100000000     0          
O116     O      0.500000000000     0.670920000000     0.093810000000     0          
C117     C      0.500000000000     0.767700000000     0.185100000000     0          
O118     O      0.000000000000     0.829080000000     0.906190000000     0          
C119     C      0.000000000000     0.732300000000     0.814900000000     0          
O120     O      0.000000000000     0.329080000000     0.406190000000     0          
C121     C      0.000000000000     0.232300000000     0.314900000000     0          
O122     O      0.500000000000     0.829080000000     0.406190000000     0          
C123     C      0.500000000000     0.732300000000     0.314900000000     0          
N124     N      0.500000000000     0.706200000000     0.380900000000     0          
O125     O      0.500000000000     0.329080000000     0.906190000000     0          
C126     C      0.500000000000     0.232300000000     0.814900000000     0          
N127     N      0.500000000000     0.206200000000     0.880900000000     0          
O128     O      0.000000000000     0.829080000000     0.093810000000     0          
C129     C      0.000000000000     0.732300000000     0.185100000000     0          
N130     N      0.000000000000     0.706200000000     0.119100000000     0          
O131     O      0.000000000000     0.329080000000     0.593810000000     0          
C132     C      0.000000000000     0.232300000000     0.685100000000     0          
O133     O      0.500000000000     0.829080000000     0.593810000000     0          
C134     C      0.500000000000     0.732300000000     0.685100000000     0          
O135     O      0.500000000000     0.329080000000     0.093810000000     0          
C136     C      0.500000000000     0.232300000000     0.185100000000     0          
O137     O      0.000000000000     0.170920000000     0.906190000000     0          
C138     C      0.000000000000     0.267700000000     0.814900000000     0          
O139     O      0.000000000000     0.670920000000     0.406190000000     0          
C140     C      0.000000000000     0.767700000000     0.314900000000     0          
O141     O      0.500000000000     0.170920000000     0.406190000000     0          
C142     C      0.500000000000     0.267700000000     0.314900000000     0          
O143     O      0.500000000000     0.670920000000     0.906190000000     0          
C144     C      0.500000000000     0.767700000000     0.814900000000     0          
O145     O      0.093810000000     0.000000000000     0.170920000000     0          
C146     C      0.185100000000     0.000000000000     0.267700000000     0          
O147     O      0.093810000000     0.500000000000     0.670920000000     0          
C148     C      0.185100000000     0.500000000000     0.767700000000     0          
N149     N      0.119100000000     0.500000000000     0.793800000000     0          
O150     O      0.593810000000     0.000000000000     0.670920000000     0          
C151     C      0.685100000000     0.000000000000     0.767700000000     0          
O152     O      0.593810000000     0.500000000000     0.170920000000     0          
C153     C      0.685100000000     0.500000000000     0.267700000000     0          
O154     O      0.906190000000     0.000000000000     0.829080000000     0          
C155     C      0.814900000000     0.000000000000     0.732300000000     0          
N156     N      0.880900000000     0.000000000000     0.706200000000     0          
O157     O      0.906190000000     0.500000000000     0.329080000000     0          
C158     C      0.814900000000     0.500000000000     0.232300000000     0          
N159     N      0.880900000000     0.500000000000     0.206200000000     0          
O160     O      0.406190000000     0.000000000000     0.329080000000     0          
C161     C      0.314900000000     0.000000000000     0.232300000000     0          
O162     O      0.406190000000     0.500000000000     0.829080000000     0          
C163     C      0.314900000000     0.500000000000     0.732300000000     0          
O164     O      0.093810000000     0.000000000000     0.829080000000     0          
C165     C      0.185100000000     0.000000000000     0.732300000000     0          
O166     O      0.093810000000     0.500000000000     0.329080000000     0          
C167     C      0.185100000000     0.500000000000     0.232300000000     0          
N168     N      0.119100000000     0.500000000000     0.206200000000     0          
O169     O      0.593810000000     0.000000000000     0.329080000000     0          
C170     C      0.685100000000     0.000000000000     0.232300000000     0          
O171     O      0.593810000000     0.500000000000     0.829080000000     0          
C172     C      0.685100000000     0.500000000000     0.732300000000     0          
O173     O      0.906190000000     0.000000000000     0.170920000000     0          
C174     C      0.814900000000     0.000000000000     0.267700000000     0          
O175     O      0.906190000000     0.500000000000     0.670920000000     0          
C176     C      0.814900000000     0.500000000000     0.767700000000     0          
O177     O      0.406190000000     0.000000000000     0.670920000000     0          
C178     C      0.314900000000     0.000000000000     0.767700000000     0          
O179     O      0.406190000000     0.500000000000     0.170920000000     0          
C180     C      0.314900000000     0.500000000000     0.267700000000     0          
O181     O      0.093810000000     0.170920000000     0.000000000000     0          
C182     C      0.185100000000     0.267700000000     0.000000000000     0          
O183     O      0.093810000000     0.670920000000     0.500000000000     0          
C184     C      0.185100000000     0.767700000000     0.500000000000     0          
N185     N      0.119100000000     0.793800000000     0.500000000000     0          
O186     O      0.593810000000     0.170920000000     0.500000000000     0          
C187     C      0.685100000000     0.267700000000     0.500000000000     0          
O188     O      0.593810000000     0.670920000000     0.000000000000     0          
C189     C      0.685100000000     0.767700000000     0.000000000000     0          
O190     O      0.906190000000     0.829080000000     0.000000000000     0          
C191     C      0.814900000000     0.732300000000     0.000000000000     0          
O192     O      0.906190000000     0.329080000000     0.500000000000     0          
C193     C      0.814900000000     0.232300000000     0.500000000000     0          
O194     O      0.406190000000     0.829080000000     0.500000000000     0          
C195     C      0.314900000000     0.732300000000     0.500000000000     0          
O196     O      0.406190000000     0.329080000000     0.000000000000     0          
C197     C      0.314900000000     0.232300000000     0.000000000000     0          
O198     O      0.093810000000     0.829080000000     0.000000000000     0          
C199     C      0.185100000000     0.732300000000     0.000000000000     0          
O200     O      0.093810000000     0.329080000000     0.500000000000     0          
C201     C      0.185100000000     0.232300000000     0.500000000000     0          
O202     O      0.593810000000     0.829080000000     0.500000000000     0          
C203     C      0.685100000000     0.732300000000     0.500000000000     0          
N204     N      0.619100000000     0.706200000000     0.500000000000     0          
O205     O      0.593810000000     0.329080000000     0.000000000000     0          
C206     C      0.685100000000     0.232300000000     0.000000000000     0          
O207     O      0.906190000000     0.170920000000     0.000000000000     0          
C208     C      0.814900000000     0.267700000000     0.000000000000     0          
N209     N      0.880900000000     0.293800000000     0.000000000000     0          
O210     O      0.906190000000     0.670920000000     0.500000000000     0          
C211     C      0.814900000000     0.767700000000     0.500000000000     0          
O212     O      0.406190000000     0.170920000000     0.500000000000     0          
C213     C      0.314900000000     0.267700000000     0.500000000000     0          
O214     O      0.406190000000     0.670920000000     0.000000000000     0          
C215     C      0.314900000000     0.767700000000     0.000000000000     0          
O216     O      0.170920000000     0.000000000000     0.906190000000     0          
C217     C      0.267700000000     0.000000000000     0.814900000000     0          
N218     N      0.293800000000     0.000000000000     0.880900000000     0          
O219     O      0.170920000000     0.500000000000     0.406190000000     0          
C220     C      0.267700000000     0.500000000000     0.314900000000     0          
O221     O      0.670920000000     0.000000000000     0.406190000000     0          
C222     C      0.767700000000     0.000000000000     0.314900000000     0          
N223     N      0.793800000000     0.000000000000     0.380900000000     0          
O224     O      0.670920000000     0.500000000000     0.906190000000     0          
C225     C      0.767700000000     0.500000000000     0.814900000000     0          
O226     O      0.829080000000     0.000000000000     0.093810000000     0          
C227     C      0.732300000000     0.000000000000     0.185100000000     0          
O228     O      0.829080000000     0.500000000000     0.593810000000     0          
C229     C      0.732300000000     0.500000000000     0.685100000000     0          
N230     N      0.706200000000     0.500000000000     0.619100000000     0          
O231     O      0.329080000000     0.000000000000     0.593810000000     0          
C232     C      0.232300000000     0.000000000000     0.685100000000     0          
O233     O      0.329080000000     0.500000000000     0.093810000000     0          
C234     C      0.232300000000     0.500000000000     0.185100000000     0          
O235     O      0.829080000000     0.000000000000     0.906190000000     0          
C236     C      0.732300000000     0.000000000000     0.814900000000     0          
O237     O      0.829080000000     0.500000000000     0.406190000000     0          
C238     C      0.732300000000     0.500000000000     0.314900000000     0          
O239     O      0.329080000000     0.000000000000     0.406190000000     0          
C240     C      0.232300000000     0.000000000000     0.314900000000     0          
O241     O      0.329080000000     0.500000000000     0.906190000000     0          
C242     C      0.232300000000     0.500000000000     0.814900000000     0          
O243     O      0.170920000000     0.000000000000     0.093810000000     0          
C244     C      0.267700000000     0.000000000000     0.185100000000     0          
N245     N      0.293800000000     0.000000000000     0.119100000000     0          
O246     O      0.170920000000     0.500000000000     0.593810000000     0          
C247     C      0.267700000000     0.500000000000     0.685100000000     0          
O248     O      0.670920000000     0.000000000000     0.593810000000     0          
C249     C      0.767700000000     0.000000000000     0.685100000000     0          
O250     O      0.670920000000     0.500000000000     0.093810000000     0          
C251     C      0.767700000000     0.500000000000     0.185100000000     0          
O252     O      0.000000000000     0.093810000000     0.829080000000     0          
C253     C      0.000000000000     0.185100000000     0.732300000000     0          
O254     O      0.000000000000     0.593810000000     0.329080000000     0          
C255     C      0.000000000000     0.685100000000     0.232300000000     0          
O256     O      0.500000000000     0.093810000000     0.329080000000     0          
C257     C      0.500000000000     0.185100000000     0.232300000000     0          
O258     O      0.500000000000     0.593810000000     0.829080000000     0          
C259     C      0.500000000000     0.685100000000     0.732300000000     0          
N260     N      0.500000000000     0.619100000000     0.706200000000     0          
O261     O      0.000000000000     0.906190000000     0.170920000000     0          
C262     C      0.000000000000     0.814900000000     0.267700000000     0          
O263     O      0.000000000000     0.406190000000     0.670920000000     0          
C264     C      0.000000000000     0.314900000000     0.767700000000     0          
N265     N      0.000000000000     0.380900000000     0.793800000000     0          
O266     O      0.500000000000     0.906190000000     0.670920000000     0          
C267     C      0.500000000000     0.814900000000     0.767700000000     0          
O268     O      0.500000000000     0.406190000000     0.170920000000     0          
C269     C      0.500000000000     0.314900000000     0.267700000000     0          
N270     N      0.500000000000     0.380900000000     0.293800000000     0          
O271     O      0.000000000000     0.093810000000     0.170920000000     0          
C272     C      0.000000000000     0.185100000000     0.267700000000     0          
N273     N      0.000000000000     0.119100000000     0.293800000000     0          
O274     O      0.000000000000     0.593810000000     0.670920000000     0          
C275     C      0.000000000000     0.685100000000     0.767700000000     0          
O276     O      0.500000000000     0.093810000000     0.670920000000     0          
C277     C      0.500000000000     0.185100000000     0.767700000000     0          
O278     O      0.500000000000     0.593810000000     0.170920000000     0          
C279     C      0.500000000000     0.685100000000     0.267700000000     0          
O280     O      0.000000000000     0.906190000000     0.829080000000     0          
C281     C      0.000000000000     0.814900000000     0.732300000000     0          
N282     N      0.000000000000     0.880900000000     0.706200000000     0          
O283     O      0.000000000000     0.406190000000     0.329080000000     0          
C284     C      0.000000000000     0.314900000000     0.232300000000     0          
O285     O      0.500000000000     0.906190000000     0.329080000000     0          
C286     C      0.500000000000     0.814900000000     0.232300000000     0          
O287     O      0.500000000000     0.406190000000     0.829080000000     0          
C288     C      0.500000000000     0.314900000000     0.732300000000     0          
C289     C      0.151290000000     0.151290000000     0.000000000000     0          
C290     C      0.202470000000     0.202470000000     0.000000000000     0          
C291     C      0.151290000000     0.651290000000     0.500000000000     0          
C292     C      0.202470000000     0.702470000000     0.500000000000     0          
C293     C      0.651290000000     0.151290000000     0.500000000000     0          
C294     C      0.702470000000     0.202470000000     0.500000000000     0          
C295     C      0.651290000000     0.651290000000     0.000000000000     0          
C296     C      0.702470000000     0.702470000000     0.000000000000     0          
C297     C      0.848710000000     0.848710000000     0.000000000000     0          
C298     C      0.797530000000     0.797530000000     0.000000000000     0          
C299     C      0.848710000000     0.348710000000     0.500000000000     0          
C300     C      0.797530000000     0.297530000000     0.500000000000     0          
C301     C      0.348710000000     0.848710000000     0.500000000000     0          
C302     C      0.297530000000     0.797530000000     0.500000000000     0          
C303     C      0.348710000000     0.348710000000     0.000000000000     0          
C304     C      0.297530000000     0.297530000000     0.000000000000     0          
C305     C      0.848710000000     0.151290000000     0.000000000000     0          
C306     C      0.797530000000     0.202470000000     0.000000000000     0          
C307     C      0.848710000000     0.651290000000     0.500000000000     0          
C308     C      0.797530000000     0.702470000000     0.500000000000     0          
C309     C      0.348710000000     0.151290000000     0.500000000000     0          
C310     C      0.297530000000     0.202470000000     0.500000000000     0          
C311     C      0.348710000000     0.651290000000     0.000000000000     0          
C312     C      0.297530000000     0.702470000000     0.000000000000     0          
C313     C      0.151290000000     0.848710000000     0.000000000000     0          
C314     C      0.202470000000     0.797530000000     0.000000000000     0          
C315     C      0.151290000000     0.348710000000     0.500000000000     0          
C316     C      0.202470000000     0.297530000000     0.500000000000     0          
C317     C      0.651290000000     0.848710000000     0.500000000000     0          
C318     C      0.702470000000     0.797530000000     0.500000000000     0          
C319     C      0.651290000000     0.348710000000     0.000000000000     0          
C320     C      0.702470000000     0.297530000000     0.000000000000     0          
C321     C      0.000000000000     0.151290000000     0.151290000000     0          
C322     C      0.000000000000     0.202470000000     0.202470000000     0          
C323     C      0.000000000000     0.651290000000     0.651290000000     0          
C324     C      0.000000000000     0.702470000000     0.702470000000     0          
C325     C      0.500000000000     0.151290000000     0.651290000000     0          
C326     C      0.500000000000     0.202470000000     0.702470000000     0          
C327     C      0.500000000000     0.651290000000     0.151290000000     0          
C328     C      0.500000000000     0.702470000000     0.202470000000     0          
C329     C      0.000000000000     0.848710000000     0.848710000000     0          
C330     C      0.000000000000     0.797530000000     0.797530000000     0          
C331     C      0.000000000000     0.348710000000     0.348710000000     0          
C332     C      0.000000000000     0.297530000000     0.297530000000     0          
C333     C      0.500000000000     0.848710000000     0.348710000000     0          
C334     C      0.500000000000     0.797530000000     0.297530000000     0          
C335     C      0.500000000000     0.348710000000     0.848710000000     0          
C336     C      0.500000000000     0.297530000000     0.797530000000     0          
C337     C      0.000000000000     0.848710000000     0.151290000000     0          
C338     C      0.000000000000     0.797530000000     0.202470000000     0          
C339     C      0.000000000000     0.348710000000     0.651290000000     0          
C340     C      0.000000000000     0.297530000000     0.702470000000     0          
C341     C      0.500000000000     0.848710000000     0.651290000000     0          
C342     C      0.500000000000     0.797530000000     0.702470000000     0          
C343     C      0.500000000000     0.348710000000     0.151290000000     0          
C344     C      0.500000000000     0.297530000000     0.202470000000     0          
C345     C      0.000000000000     0.151290000000     0.848710000000     0          
C346     C      0.000000000000     0.202470000000     0.797530000000     0          
C347     C      0.000000000000     0.651290000000     0.348710000000     0          
C348     C      0.000000000000     0.702470000000     0.297530000000     0          
C349     C      0.500000000000     0.151290000000     0.348710000000     0          
C350     C      0.500000000000     0.202470000000     0.297530000000     0          
C351     C      0.500000000000     0.651290000000     0.848710000000     0          
C352     C      0.500000000000     0.702470000000     0.797530000000     0          
C353     C      0.151290000000     0.000000000000     0.151290000000     0          
C354     C      0.202470000000     0.000000000000     0.202470000000     0          
C355     C      0.151290000000     0.500000000000     0.651290000000     0          
C356     C      0.202470000000     0.500000000000     0.702470000000     0          
C357     C      0.651290000000     0.000000000000     0.651290000000     0          
C358     C      0.702470000000     0.000000000000     0.702470000000     0          
C359     C      0.651290000000     0.500000000000     0.151290000000     0          
C360     C      0.702470000000     0.500000000000     0.202470000000     0          
C361     C      0.848710000000     0.000000000000     0.848710000000     0          
C362     C      0.797530000000     0.000000000000     0.797530000000     0          
C363     C      0.848710000000     0.500000000000     0.348710000000     0          
C364     C      0.797530000000     0.500000000000     0.297530000000     0          
C365     C      0.348710000000     0.000000000000     0.348710000000     0          
C366     C      0.297530000000     0.000000000000     0.297530000000     0          
C367     C      0.348710000000     0.500000000000     0.848710000000     0          
C368     C      0.297530000000     0.500000000000     0.797530000000     0          
C369     C      0.151290000000     0.000000000000     0.848710000000     0          
C370     C      0.202470000000     0.000000000000     0.797530000000     0          
C371     C      0.151290000000     0.500000000000     0.348710000000     0          
C372     C      0.202470000000     0.500000000000     0.297530000000     0          
C373     C      0.651290000000     0.000000000000     0.348710000000     0          
C374     C      0.702470000000     0.000000000000     0.297530000000     0          
C375     C      0.651290000000     0.500000000000     0.848710000000     0          
C376     C      0.702470000000     0.500000000000     0.797530000000     0          
C377     C      0.848710000000     0.000000000000     0.151290000000     0          
C378     C      0.797530000000     0.000000000000     0.202470000000     0          
C379     C      0.848710000000     0.500000000000     0.651290000000     0          
C380     C      0.797530000000     0.500000000000     0.702470000000     0          
C381     C      0.348710000000     0.000000000000     0.651290000000     0          
C382     C      0.297530000000     0.000000000000     0.702470000000     0          
C383     C      0.348710000000     0.500000000000     0.151290000000     0          
C384     C      0.297530000000     0.500000000000     0.202470000000     0          
O385     O      0.050670000000     0.050670000000     0.050670000000     0          
O386     O      0.050670000000     0.550670000000     0.550670000000     0          
O387     O      0.550670000000     0.050670000000     0.550670000000     0          
O388     O      0.550670000000     0.550670000000     0.050670000000     0          
O389     O      0.949330000000     0.949330000000     0.050670000000     0          
O390     O      0.949330000000     0.449330000000     0.550670000000     0          
O391     O      0.449330000000     0.949330000000     0.550670000000     0          
O392     O      0.449330000000     0.449330000000     0.050670000000     0          
O393     O      0.949330000000     0.050670000000     0.949330000000     0          
O394     O      0.949330000000     0.550670000000     0.449330000000     0          
O395     O      0.449330000000     0.050670000000     0.449330000000     0          
O396     O      0.449330000000     0.550670000000     0.949330000000     0          
O397     O      0.050670000000     0.949330000000     0.949330000000     0          
O398     O      0.050670000000     0.449330000000     0.449330000000     0          
O399     O      0.550670000000     0.949330000000     0.449330000000     0          
O400     O      0.550670000000     0.449330000000     0.949330000000     0          
O401     O      0.050670000000     0.050670000000     0.949330000000     0          
O402     O      0.050670000000     0.550670000000     0.449330000000     0          
O403     O      0.550670000000     0.050670000000     0.449330000000     0          
O404     O      0.550670000000     0.550670000000     0.949330000000     0          
O405     O      0.949330000000     0.949330000000     0.949330000000     0          
O406     O      0.949330000000     0.449330000000     0.449330000000     0          
O407     O      0.449330000000     0.949330000000     0.449330000000     0          
O408     O      0.449330000000     0.449330000000     0.949330000000     0          
O409     O      0.050670000000     0.949330000000     0.050670000000     0          
O410     O      0.050670000000     0.449330000000     0.550670000000     0          
O411     O      0.550670000000     0.949330000000     0.550670000000     0          
O412     O      0.550670000000     0.449330000000     0.050670000000     0          
O413     O      0.949330000000     0.050670000000     0.050670000000     0          
O414     O      0.949330000000     0.550670000000     0.550670000000     0          
O415     O      0.449330000000     0.050670000000     0.550670000000     0          
O416     O      0.449330000000     0.550670000000     0.050670000000     0          
H417     H      0.281970000000     0.132170000000     0.000000000000     0          
H418     H      0.281970000000     0.632170000000     0.500000000000     0          
H419     H      0.781970000000     0.632170000000     0.000000000000     0          
H420     H      0.718030000000     0.367830000000     0.500000000000     0          
H421     H      0.218030000000     0.867830000000     0.500000000000     0          
H422     H      0.718030000000     0.132170000000     0.000000000000     0          
H423     H      0.718030000000     0.632170000000     0.500000000000     0          
H424     H      0.218030000000     0.632170000000     0.000000000000     0          
H425     H      0.281970000000     0.367830000000     0.500000000000     0          
H426     H      0.781970000000     0.867830000000     0.500000000000     0          
H427     H      0.781970000000     0.367830000000     0.000000000000     0          
H428     H      0.000000000000     0.281970000000     0.132170000000     0          
H429     H      0.000000000000     0.781970000000     0.632170000000     0          
H430     H      0.500000000000     0.281970000000     0.632170000000     0          
H431     H      0.500000000000     0.781970000000     0.132170000000     0          
H432     H      0.000000000000     0.718030000000     0.867830000000     0          
H433     H      0.000000000000     0.218030000000     0.367830000000     0          
H434     H      0.000000000000     0.218030000000     0.632170000000     0          
H435     H      0.500000000000     0.718030000000     0.632170000000     0          
H436     H      0.500000000000     0.218030000000     0.132170000000     0          
H437     H      0.000000000000     0.281970000000     0.867830000000     0          
H438     H      0.000000000000     0.781970000000     0.367830000000     0          
H439     H      0.500000000000     0.281970000000     0.367830000000     0          
H440     H      0.500000000000     0.781970000000     0.867830000000     0          
H441     H      0.132170000000     0.000000000000     0.281970000000     0          
H442     H      0.632170000000     0.000000000000     0.781970000000     0          
H443     H      0.632170000000     0.500000000000     0.281970000000     0          
H444     H      0.367830000000     0.000000000000     0.218030000000     0          
H445     H      0.367830000000     0.500000000000     0.718030000000     0          
H446     H      0.132170000000     0.000000000000     0.718030000000     0          
H447     H      0.632170000000     0.000000000000     0.218030000000     0          
H448     H      0.632170000000     0.500000000000     0.718030000000     0          
H449     H      0.867830000000     0.000000000000     0.281970000000     0          
H450     H      0.867830000000     0.500000000000     0.781970000000     0          
H451     H      0.367830000000     0.000000000000     0.781970000000     0          
H452     H      0.367830000000     0.500000000000     0.281970000000     0          
H453     H      0.132170000000     0.281970000000     0.000000000000     0          
H454     H      0.632170000000     0.281970000000     0.500000000000     0          
H455     H      0.632170000000     0.781970000000     0.000000000000     0          
H456     H      0.867830000000     0.718030000000     0.000000000000     0          
H457     H      0.867830000000     0.218030000000     0.500000000000     0          
H458     H      0.367830000000     0.718030000000     0.500000000000     0          
H459     H      0.367830000000     0.218030000000     0.000000000000     0          
H460     H      0.132170000000     0.718030000000     0.000000000000     0          
H461     H      0.132170000000     0.218030000000     0.500000000000     0          
H462     H      0.632170000000     0.218030000000     0.000000000000     0          
H463     H      0.867830000000     0.781970000000     0.500000000000     0          
H464     H      0.367830000000     0.281970000000     0.500000000000     0          
H465     H      0.367830000000     0.781970000000     0.000000000000     0          
H466     H      0.281970000000     0.500000000000     0.367830000000     0          
H467     H      0.781970000000     0.500000000000     0.867830000000     0          
H468     H      0.718030000000     0.000000000000     0.132170000000     0          
H469     H      0.218030000000     0.000000000000     0.632170000000     0          
H470     H      0.218030000000     0.500000000000     0.132170000000     0          
H471     H      0.718030000000     0.000000000000     0.867830000000     0          
H472     H      0.718030000000     0.500000000000     0.367830000000     0          
H473     H      0.218030000000     0.000000000000     0.367830000000     0          
H474     H      0.218030000000     0.500000000000     0.867830000000     0          
H475     H      0.281970000000     0.500000000000     0.632170000000     0          
H476     H      0.781970000000     0.000000000000     0.632170000000     0          
H477     H      0.781970000000     0.500000000000     0.132170000000     0          
H478     H      0.000000000000     0.132170000000     0.718030000000     0          
H479     H      0.000000000000     0.632170000000     0.218030000000     0          
H480     H      0.500000000000     0.132170000000     0.218030000000     0          
H481     H      0.000000000000     0.867830000000     0.281970000000     0          
H482     H      0.500000000000     0.867830000000     0.781970000000     0          
H483     H      0.000000000000     0.632170000000     0.781970000000     0          
H484     H      0.500000000000     0.132170000000     0.781970000000     0          
H485     H      0.500000000000     0.632170000000     0.281970000000     0          
H486     H      0.000000000000     0.367830000000     0.218030000000     0          
H487     H      0.500000000000     0.867830000000     0.218030000000     0          
H488     H      0.500000000000     0.367830000000     0.718030000000     0          


