data_TETSET

_audit_creation_method RASPA-1.0
_audit_creation_date 2020-4-3
_audit_author_name 'Rocio Bueno-Perez'

_cell_length_a    29.2753
_cell_length_b    29.2753
_cell_length_c    29.2753
_cell_angle_alpha 90
_cell_angle_beta  90
_cell_angle_gamma 90
_cell_volume      25090.2

_symmetry_cell_setting          triclinic
_symmetry_space_group_name_Hall 'P 1'
_symmetry_space_group_name_H-M  'P 1'
_symmetry_Int_Tables_number     1

_symmetry_equiv_pos_as_xyz 'x,y,z'

loop_
_atom_site_label
_atom_site_type_symbol
_atom_site_fract_x
_atom_site_fract_y
_atom_site_fract_z
_atom_site_charge
Zr1      Zr     0.500000000000     0.500000000000     0.416000000000     0          
Zr2      Zr     0.500000000000     0.000000000000     0.916000000000     0          
Zr3      Zr     0.000000000000     0.500000000000     0.916000000000     0          
Zr4      Zr     0.000000000000     0.000000000000     0.416000000000     0          
Zr5      Zr     0.500000000000     0.500000000000     0.584000000000     0          
Zr6      Zr     0.500000000000     0.000000000000     0.084000000000     0          
Zr7      Zr     0.000000000000     0.500000000000     0.084000000000     0          
Zr8      Zr     0.000000000000     0.000000000000     0.584000000000     0          
Zr9      Zr     0.416000000000     0.500000000000     0.500000000000     0          
Zr10     Zr     0.416000000000     0.000000000000     0.000000000000     0          
Zr11     Zr     0.916000000000     0.500000000000     0.000000000000     0          
Zr12     Zr     0.916000000000     0.000000000000     0.500000000000     0          
Zr13     Zr     0.584000000000     0.500000000000     0.500000000000     0          
Zr14     Zr     0.584000000000     0.000000000000     0.000000000000     0          
Zr15     Zr     0.084000000000     0.500000000000     0.000000000000     0          
Zr16     Zr     0.084000000000     0.000000000000     0.500000000000     0          
Zr17     Zr     0.500000000000     0.416000000000     0.500000000000     0          
Zr18     Zr     0.500000000000     0.916000000000     0.000000000000     0          
Zr19     Zr     0.000000000000     0.416000000000     0.000000000000     0          
Zr20     Zr     0.000000000000     0.916000000000     0.500000000000     0          
Zr21     Zr     0.500000000000     0.584000000000     0.500000000000     0          
Zr22     Zr     0.500000000000     0.084000000000     0.000000000000     0          
Zr23     Zr     0.000000000000     0.584000000000     0.000000000000     0          
Zr24     Zr     0.000000000000     0.084000000000     0.500000000000     0          
O25      O      0.500000000000     0.435000000000     0.377400000000     0          
O26      O      0.500000000000     0.935000000000     0.877400000000     0          
O27      O      0.000000000000     0.435000000000     0.877400000000     0          
O28      O      0.000000000000     0.935000000000     0.377400000000     0          
C29      C      0.000000000000     0.802000000000     0.281900000000     0          
C30      C      0.000000000000     0.785400000000     0.326100000000     0          
H31      H      0.000000000000     0.754200000000     0.331800000000     0          
C32      C      0.000000000000     0.815500000000     0.362500000000     0          
H33      H      0.000000000000     0.804700000000     0.392300000000     0          
C34      C      0.000000000000     0.862300000000     0.354700000000     0          
C35      C      0.000000000000     0.878800000000     0.310100000000     0          
H36      H      0.000000000000     0.910000000000     0.304500000000     0          
C37      C      0.000000000000     0.848600000000     0.273700000000     0          
H38      H      0.000000000000     0.859300000000     0.243800000000     0          
N39      N      0.000000000000     0.770420000000     0.243800000000     0          
O40      O      0.500000000000     0.565000000000     0.377400000000     0          
O41      O      0.500000000000     0.065000000000     0.877400000000     0          
C42      C      0.500000000000     0.198000000000     0.781900000000     0          
C43      C      0.500000000000     0.214600000000     0.826100000000     0          
H44      H      0.500000000000     0.245800000000     0.831800000000     0          
C45      C      0.500000000000     0.184500000000     0.862500000000     0          
H46      H      0.500000000000     0.195300000000     0.892300000000     0          
C47      C      0.500000000000     0.137700000000     0.854700000000     0          
C48      C      0.500000000000     0.121200000000     0.810100000000     0          
H49      H      0.500000000000     0.090000000000     0.804500000000     0          
C50      C      0.500000000000     0.151400000000     0.773700000000     0          
H51      H      0.500000000000     0.140700000000     0.743800000000     0          
N52      N      0.500000000000     0.229580000000     0.743800000000     0          
O53      O      0.000000000000     0.565000000000     0.877400000000     0          
O54      O      0.000000000000     0.065000000000     0.377400000000     0          
O55      O      0.500000000000     0.435000000000     0.622600000000     0          
C56      C      0.500000000000     0.302000000000     0.718100000000     0          
C57      C      0.500000000000     0.285400000000     0.673900000000     0          
H58      H      0.500000000000     0.254200000000     0.668200000000     0          
C59      C      0.500000000000     0.315500000000     0.637500000000     0          
H60      H      0.500000000000     0.304700000000     0.607700000000     0          
C61      C      0.500000000000     0.362300000000     0.645300000000     0          
C62      C      0.500000000000     0.378800000000     0.689900000000     0          
H63      H      0.500000000000     0.410000000000     0.695500000000     0          
C64      C      0.500000000000     0.348600000000     0.726300000000     0          
H65      H      0.500000000000     0.359300000000     0.756200000000     0          
N66      N      0.500000000000     0.270420000000     0.756200000000     0          
O67      O      0.500000000000     0.935000000000     0.122600000000     0          
O68      O      0.000000000000     0.435000000000     0.122600000000     0          
O69      O      0.000000000000     0.935000000000     0.622600000000     0          
O70      O      0.500000000000     0.565000000000     0.622600000000     0          
O71      O      0.500000000000     0.065000000000     0.122600000000     0          
O72      O      0.000000000000     0.565000000000     0.122600000000     0          
C73      C      0.000000000000     0.698000000000     0.218100000000     0          
C74      C      0.000000000000     0.714600000000     0.173900000000     0          
H75      H      0.000000000000     0.745800000000     0.168200000000     0          
C76      C      0.000000000000     0.684500000000     0.137500000000     0          
H77      H      0.000000000000     0.695300000000     0.107700000000     0          
C78      C      0.000000000000     0.637700000000     0.145300000000     0          
C79      C      0.000000000000     0.621200000000     0.189900000000     0          
H80      H      0.000000000000     0.590000000000     0.195500000000     0          
C81      C      0.000000000000     0.651400000000     0.226300000000     0          
H82      H      0.000000000000     0.640700000000     0.256200000000     0          
N83      N      0.000000000000     0.729580000000     0.256200000000     0          
O84      O      0.000000000000     0.065000000000     0.622600000000     0          
O85      O      0.377400000000     0.500000000000     0.435000000000     0          
C86      C      0.281900000000     0.500000000000     0.302000000000     0          
C87      C      0.326100000000     0.500000000000     0.285400000000     0          
H88      H      0.331800000000     0.500000000000     0.254200000000     0          
C89      C      0.362500000000     0.500000000000     0.315500000000     0          
H90      H      0.392300000000     0.500000000000     0.304700000000     0          
C91      C      0.354700000000     0.500000000000     0.362300000000     0          
C92      C      0.310100000000     0.500000000000     0.378800000000     0          
H93      H      0.304500000000     0.500000000000     0.410000000000     0          
C94      C      0.273700000000     0.500000000000     0.348600000000     0          
H95      H      0.243800000000     0.500000000000     0.359300000000     0          
N96      N      0.243800000000     0.500000000000     0.270420000000     0          
O97      O      0.377400000000     0.000000000000     0.935000000000     0          
C98      C      0.281900000000     0.000000000000     0.802000000000     0          
C99      C      0.326100000000     0.000000000000     0.785400000000     0          
H100     H      0.331800000000     0.000000000000     0.754200000000     0          
C101     C      0.362500000000     0.000000000000     0.815500000000     0          
H102     H      0.392300000000     0.000000000000     0.804700000000     0          
C103     C      0.354700000000     0.000000000000     0.862300000000     0          
C104     C      0.310100000000     0.000000000000     0.878800000000     0          
H105     H      0.304500000000     0.000000000000     0.910000000000     0          
C106     C      0.273700000000     0.000000000000     0.848600000000     0          
H107     H      0.243800000000     0.000000000000     0.859300000000     0          
N108     N      0.243800000000     0.000000000000     0.770420000000     0          
O109     O      0.877400000000     0.500000000000     0.935000000000     0          
O110     O      0.877400000000     0.000000000000     0.435000000000     0          
O111     O      0.377400000000     0.500000000000     0.565000000000     0          
O112     O      0.377400000000     0.000000000000     0.065000000000     0          
C113     C      0.281900000000     0.000000000000     0.198000000000     0          
C114     C      0.326100000000     0.000000000000     0.214600000000     0          
H115     H      0.331800000000     0.000000000000     0.245800000000     0          
C116     C      0.362500000000     0.000000000000     0.184500000000     0          
H117     H      0.392300000000     0.000000000000     0.195300000000     0          
C118     C      0.354700000000     0.000000000000     0.137700000000     0          
C119     C      0.310100000000     0.000000000000     0.121200000000     0          
H120     H      0.304500000000     0.000000000000     0.090000000000     0          
C121     C      0.273700000000     0.000000000000     0.151400000000     0          
H122     H      0.243800000000     0.000000000000     0.140700000000     0          
N123     N      0.243800000000     0.000000000000     0.229580000000     0          
O124     O      0.877400000000     0.500000000000     0.065000000000     0          
O125     O      0.877400000000     0.000000000000     0.565000000000     0          
O126     O      0.622600000000     0.500000000000     0.435000000000     0          
O127     O      0.622600000000     0.000000000000     0.935000000000     0          
O128     O      0.122600000000     0.500000000000     0.935000000000     0          
O129     O      0.122600000000     0.000000000000     0.435000000000     0          
C130     C      0.218100000000     0.000000000000     0.302000000000     0          
C131     C      0.173900000000     0.000000000000     0.285400000000     0          
H132     H      0.168200000000     0.000000000000     0.254200000000     0          
C133     C      0.137500000000     0.000000000000     0.315500000000     0          
H134     H      0.107700000000     0.000000000000     0.304700000000     0          
C135     C      0.145300000000     0.000000000000     0.362300000000     0          
C136     C      0.189900000000     0.000000000000     0.378800000000     0          
H137     H      0.195500000000     0.000000000000     0.410000000000     0          
C138     C      0.226300000000     0.000000000000     0.348600000000     0          
H139     H      0.256200000000     0.000000000000     0.359300000000     0          
N140     N      0.256200000000     0.000000000000     0.270420000000     0          
O141     O      0.622600000000     0.500000000000     0.565000000000     0          
O142     O      0.622600000000     0.000000000000     0.065000000000     0          
O143     O      0.122600000000     0.500000000000     0.065000000000     0          
C144     C      0.218100000000     0.500000000000     0.198000000000     0          
C145     C      0.173900000000     0.500000000000     0.214600000000     0          
H146     H      0.168200000000     0.500000000000     0.245800000000     0          
C147     C      0.137500000000     0.500000000000     0.184500000000     0          
H148     H      0.107700000000     0.500000000000     0.195300000000     0          
C149     C      0.145300000000     0.500000000000     0.137700000000     0          
C150     C      0.189900000000     0.500000000000     0.121200000000     0          
H151     H      0.195500000000     0.500000000000     0.090000000000     0          
C152     C      0.226300000000     0.500000000000     0.151400000000     0          
H153     H      0.256200000000     0.500000000000     0.140700000000     0          
N154     N      0.256200000000     0.500000000000     0.229580000000     0          
O155     O      0.122600000000     0.000000000000     0.565000000000     0          
C156     C      0.218100000000     0.000000000000     0.698000000000     0          
C157     C      0.173900000000     0.000000000000     0.714600000000     0          
H158     H      0.168200000000     0.000000000000     0.745800000000     0          
C159     C      0.137500000000     0.000000000000     0.684500000000     0          
H160     H      0.107700000000     0.000000000000     0.695300000000     0          
C161     C      0.145300000000     0.000000000000     0.637700000000     0          
C162     C      0.189900000000     0.000000000000     0.621200000000     0          
H163     H      0.195500000000     0.000000000000     0.590000000000     0          
C164     C      0.226300000000     0.000000000000     0.651400000000     0          
H165     H      0.256200000000     0.000000000000     0.640700000000     0          
N166     N      0.256200000000     0.000000000000     0.729580000000     0          
O167     O      0.435000000000     0.377400000000     0.500000000000     0          
C168     C      0.302000000000     0.281900000000     0.500000000000     0          
C169     C      0.285400000000     0.326100000000     0.500000000000     0          
H170     H      0.254200000000     0.331800000000     0.500000000000     0          
C171     C      0.315500000000     0.362500000000     0.500000000000     0          
H172     H      0.304700000000     0.392300000000     0.500000000000     0          
C173     C      0.362300000000     0.354700000000     0.500000000000     0          
C174     C      0.378800000000     0.310100000000     0.500000000000     0          
H175     H      0.410000000000     0.304500000000     0.500000000000     0          
C176     C      0.348600000000     0.273700000000     0.500000000000     0          
H177     H      0.359300000000     0.243800000000     0.500000000000     0          
N178     N      0.270420000000     0.243800000000     0.500000000000     0          
O179     O      0.435000000000     0.877400000000     0.000000000000     0          
C180     C      0.302000000000     0.781900000000     0.000000000000     0          
C181     C      0.285400000000     0.826100000000     0.000000000000     0          
H182     H      0.254200000000     0.831800000000     0.000000000000     0          
C183     C      0.315500000000     0.862500000000     0.000000000000     0          
H184     H      0.304700000000     0.892300000000     0.000000000000     0          
C185     C      0.362300000000     0.854700000000     0.000000000000     0          
C186     C      0.378800000000     0.810100000000     0.000000000000     0          
H187     H      0.410000000000     0.804500000000     0.000000000000     0          
C188     C      0.348600000000     0.773700000000     0.000000000000     0          
H189     H      0.359300000000     0.743800000000     0.000000000000     0          
N190     N      0.270420000000     0.743800000000     0.000000000000     0          
O191     O      0.935000000000     0.377400000000     0.000000000000     0          
C192     C      0.802000000000     0.281900000000     0.000000000000     0          
C193     C      0.785400000000     0.326100000000     0.000000000000     0          
H194     H      0.754200000000     0.331800000000     0.000000000000     0          
C195     C      0.815500000000     0.362500000000     0.000000000000     0          
H196     H      0.804700000000     0.392300000000     0.000000000000     0          
C197     C      0.862300000000     0.354700000000     0.000000000000     0          
C198     C      0.878800000000     0.310100000000     0.000000000000     0          
H199     H      0.910000000000     0.304500000000     0.000000000000     0          
C200     C      0.848600000000     0.273700000000     0.000000000000     0          
H201     H      0.859300000000     0.243800000000     0.000000000000     0          
N202     N      0.770420000000     0.243800000000     0.000000000000     0          
O203     O      0.935000000000     0.877400000000     0.500000000000     0          
O204     O      0.565000000000     0.377400000000     0.500000000000     0          
C205     C      0.698000000000     0.281900000000     0.500000000000     0          
C206     C      0.714600000000     0.326100000000     0.500000000000     0          
H207     H      0.745800000000     0.331800000000     0.500000000000     0          
C208     C      0.684500000000     0.362500000000     0.500000000000     0          
H209     H      0.695300000000     0.392300000000     0.500000000000     0          
C210     C      0.637700000000     0.354700000000     0.500000000000     0          
C211     C      0.621200000000     0.310100000000     0.500000000000     0          
H212     H      0.590000000000     0.304500000000     0.500000000000     0          
C213     C      0.651400000000     0.273700000000     0.500000000000     0          
H214     H      0.640700000000     0.243800000000     0.500000000000     0          
N215     N      0.729580000000     0.243800000000     0.500000000000     0          
O216     O      0.565000000000     0.877400000000     0.000000000000     0          
O217     O      0.065000000000     0.377400000000     0.000000000000     0          
O218     O      0.065000000000     0.877400000000     0.500000000000     0          
C219     C      0.198000000000     0.781900000000     0.500000000000     0          
C220     C      0.214600000000     0.826100000000     0.500000000000     0          
H221     H      0.245800000000     0.831800000000     0.500000000000     0          
C222     C      0.184500000000     0.862500000000     0.500000000000     0          
H223     H      0.195300000000     0.892300000000     0.500000000000     0          
C224     C      0.137700000000     0.854700000000     0.500000000000     0          
C225     C      0.121200000000     0.810100000000     0.500000000000     0          
H226     H      0.090000000000     0.804500000000     0.500000000000     0          
C227     C      0.151400000000     0.773700000000     0.500000000000     0          
H228     H      0.140700000000     0.743800000000     0.500000000000     0          
N229     N      0.229580000000     0.743800000000     0.500000000000     0          
O230     O      0.435000000000     0.622600000000     0.500000000000     0          
C231     C      0.302000000000     0.718100000000     0.500000000000     0          
C232     C      0.285400000000     0.673900000000     0.500000000000     0          
H233     H      0.254200000000     0.668200000000     0.500000000000     0          
C234     C      0.315500000000     0.637500000000     0.500000000000     0          
H235     H      0.304700000000     0.607700000000     0.500000000000     0          
C236     C      0.362300000000     0.645300000000     0.500000000000     0          
C237     C      0.378800000000     0.689900000000     0.500000000000     0          
H238     H      0.410000000000     0.695500000000     0.500000000000     0          
C239     C      0.348600000000     0.726300000000     0.500000000000     0          
H240     H      0.359300000000     0.756200000000     0.500000000000     0          
N241     N      0.270420000000     0.756200000000     0.500000000000     0          
O242     O      0.435000000000     0.122600000000     0.000000000000     0          
O243     O      0.935000000000     0.622600000000     0.000000000000     0          
O244     O      0.935000000000     0.122600000000     0.500000000000     0          
C245     C      0.802000000000     0.218100000000     0.500000000000     0          
C246     C      0.785400000000     0.173900000000     0.500000000000     0          
H247     H      0.754200000000     0.168200000000     0.500000000000     0          
C248     C      0.815500000000     0.137500000000     0.500000000000     0          
H249     H      0.804700000000     0.107700000000     0.500000000000     0          
C250     C      0.862300000000     0.145300000000     0.500000000000     0          
C251     C      0.878800000000     0.189900000000     0.500000000000     0          
H252     H      0.910000000000     0.195500000000     0.500000000000     0          
C253     C      0.848600000000     0.226300000000     0.500000000000     0          
H254     H      0.859300000000     0.256200000000     0.500000000000     0          
N255     N      0.770420000000     0.256200000000     0.500000000000     0          
O256     O      0.565000000000     0.622600000000     0.500000000000     0          
O257     O      0.565000000000     0.122600000000     0.000000000000     0          
C258     C      0.698000000000     0.218100000000     0.000000000000     0          
C259     C      0.714600000000     0.173900000000     0.000000000000     0          
H260     H      0.745800000000     0.168200000000     0.000000000000     0          
C261     C      0.684500000000     0.137500000000     0.000000000000     0          
H262     H      0.695300000000     0.107700000000     0.000000000000     0          
C263     C      0.637700000000     0.145300000000     0.000000000000     0          
C264     C      0.621200000000     0.189900000000     0.000000000000     0          
H265     H      0.590000000000     0.195500000000     0.000000000000     0          
C266     C      0.651400000000     0.226300000000     0.000000000000     0          
H267     H      0.640700000000     0.256200000000     0.000000000000     0          
N268     N      0.729580000000     0.256200000000     0.000000000000     0          
O269     O      0.065000000000     0.622600000000     0.000000000000     0          
C270     C      0.198000000000     0.718100000000     0.000000000000     0          
C271     C      0.214600000000     0.673900000000     0.000000000000     0          
H272     H      0.245800000000     0.668200000000     0.000000000000     0          
C273     C      0.184500000000     0.637500000000     0.000000000000     0          
H274     H      0.195300000000     0.607700000000     0.000000000000     0          
C275     C      0.137700000000     0.645300000000     0.000000000000     0          
C276     C      0.121200000000     0.689900000000     0.000000000000     0          
H277     H      0.090000000000     0.695500000000     0.000000000000     0          
C278     C      0.151400000000     0.726300000000     0.000000000000     0          
H279     H      0.140700000000     0.756200000000     0.000000000000     0          
N280     N      0.229580000000     0.756200000000     0.000000000000     0          
O281     O      0.065000000000     0.122600000000     0.500000000000     0          
C282     C      0.198000000000     0.218100000000     0.500000000000     0          
C283     C      0.214600000000     0.173900000000     0.500000000000     0          
H284     H      0.245800000000     0.168200000000     0.500000000000     0          
C285     C      0.184500000000     0.137500000000     0.500000000000     0          
H286     H      0.195300000000     0.107700000000     0.500000000000     0          
C287     C      0.137700000000     0.145300000000     0.500000000000     0          
C288     C      0.121200000000     0.189900000000     0.500000000000     0          
H289     H      0.090000000000     0.195500000000     0.500000000000     0          
C290     C      0.151400000000     0.226300000000     0.500000000000     0          
H291     H      0.140700000000     0.256200000000     0.500000000000     0          
N292     N      0.229580000000     0.256200000000     0.500000000000     0          
O293     O      0.435000000000     0.500000000000     0.622600000000     0          
C294     C      0.302000000000     0.500000000000     0.718100000000     0          
C295     C      0.285400000000     0.500000000000     0.673900000000     0          
H296     H      0.254200000000     0.500000000000     0.668200000000     0          
C297     C      0.315500000000     0.500000000000     0.637500000000     0          
H298     H      0.304700000000     0.500000000000     0.607700000000     0          
C299     C      0.362300000000     0.500000000000     0.645300000000     0          
C300     C      0.378800000000     0.500000000000     0.689900000000     0          
H301     H      0.410000000000     0.500000000000     0.695500000000     0          
C302     C      0.348600000000     0.500000000000     0.726300000000     0          
H303     H      0.359300000000     0.500000000000     0.756200000000     0          
N304     N      0.270420000000     0.500000000000     0.756200000000     0          
O305     O      0.435000000000     0.000000000000     0.122600000000     0          
O306     O      0.935000000000     0.500000000000     0.122600000000     0          
C307     C      0.802000000000     0.500000000000     0.218100000000     0          
C308     C      0.785400000000     0.500000000000     0.173900000000     0          
H309     H      0.754200000000     0.500000000000     0.168200000000     0          
C310     C      0.815500000000     0.500000000000     0.137500000000     0          
H311     H      0.804700000000     0.500000000000     0.107700000000     0          
C312     C      0.862300000000     0.500000000000     0.145300000000     0          
C313     C      0.878800000000     0.500000000000     0.189900000000     0          
H314     H      0.910000000000     0.500000000000     0.195500000000     0          
C315     C      0.848600000000     0.500000000000     0.226300000000     0          
H316     H      0.859300000000     0.500000000000     0.256200000000     0          
N317     N      0.770420000000     0.500000000000     0.256200000000     0          
O318     O      0.935000000000     0.000000000000     0.622600000000     0          
C319     C      0.802000000000     0.000000000000     0.718100000000     0          
C320     C      0.785400000000     0.000000000000     0.673900000000     0          
H321     H      0.754200000000     0.000000000000     0.668200000000     0          
C322     C      0.815500000000     0.000000000000     0.637500000000     0          
H323     H      0.804700000000     0.000000000000     0.607700000000     0          
C324     C      0.862300000000     0.000000000000     0.645300000000     0          
C325     C      0.878800000000     0.000000000000     0.689900000000     0          
H326     H      0.910000000000     0.000000000000     0.695500000000     0          
C327     C      0.848600000000     0.000000000000     0.726300000000     0          
H328     H      0.859300000000     0.000000000000     0.756200000000     0          
N329     N      0.770420000000     0.000000000000     0.756200000000     0          
O330     O      0.565000000000     0.500000000000     0.622600000000     0          
C331     C      0.698000000000     0.500000000000     0.718100000000     0          
C332     C      0.714600000000     0.500000000000     0.673900000000     0          
H333     H      0.745800000000     0.500000000000     0.668200000000     0          
C334     C      0.684500000000     0.500000000000     0.637500000000     0          
H335     H      0.695300000000     0.500000000000     0.607700000000     0          
C336     C      0.637700000000     0.500000000000     0.645300000000     0          
C337     C      0.621200000000     0.500000000000     0.689900000000     0          
H338     H      0.590000000000     0.500000000000     0.695500000000     0          
C339     C      0.651400000000     0.500000000000     0.726300000000     0          
H340     H      0.640700000000     0.500000000000     0.756200000000     0          
N341     N      0.729580000000     0.500000000000     0.756200000000     0          
O342     O      0.565000000000     0.000000000000     0.122600000000     0          
C343     C      0.698000000000     0.000000000000     0.218100000000     0          
C344     C      0.714600000000     0.000000000000     0.173900000000     0          
H345     H      0.745800000000     0.000000000000     0.168200000000     0          
C346     C      0.684500000000     0.000000000000     0.137500000000     0          
H347     H      0.695300000000     0.000000000000     0.107700000000     0          
C348     C      0.637700000000     0.000000000000     0.145300000000     0          
C349     C      0.621200000000     0.000000000000     0.189900000000     0          
H350     H      0.590000000000     0.000000000000     0.195500000000     0          
C351     C      0.651400000000     0.000000000000     0.226300000000     0          
H352     H      0.640700000000     0.000000000000     0.256200000000     0          
N353     N      0.729580000000     0.000000000000     0.256200000000     0          
O354     O      0.065000000000     0.500000000000     0.122600000000     0          
O355     O      0.065000000000     0.000000000000     0.622600000000     0          
O356     O      0.435000000000     0.500000000000     0.377400000000     0          
O357     O      0.435000000000     0.000000000000     0.877400000000     0          
O358     O      0.935000000000     0.500000000000     0.877400000000     0          
C359     C      0.802000000000     0.500000000000     0.781900000000     0          
C360     C      0.785400000000     0.500000000000     0.826100000000     0          
H361     H      0.754200000000     0.500000000000     0.831800000000     0          
C362     C      0.815500000000     0.500000000000     0.862500000000     0          
H363     H      0.804700000000     0.500000000000     0.892300000000     0          
C364     C      0.862300000000     0.500000000000     0.854700000000     0          
C365     C      0.878800000000     0.500000000000     0.810100000000     0          
H366     H      0.910000000000     0.500000000000     0.804500000000     0          
C367     C      0.848600000000     0.500000000000     0.773700000000     0          
H368     H      0.859300000000     0.500000000000     0.743800000000     0          
N369     N      0.770420000000     0.500000000000     0.743800000000     0          
O370     O      0.935000000000     0.000000000000     0.377400000000     0          
C371     C      0.802000000000     0.000000000000     0.281900000000     0          
C372     C      0.785400000000     0.000000000000     0.326100000000     0          
H373     H      0.754200000000     0.000000000000     0.331800000000     0          
C374     C      0.815500000000     0.000000000000     0.362500000000     0          
H375     H      0.804700000000     0.000000000000     0.392300000000     0          
C376     C      0.862300000000     0.000000000000     0.354700000000     0          
C377     C      0.878800000000     0.000000000000     0.310100000000     0          
H378     H      0.910000000000     0.000000000000     0.304500000000     0          
C379     C      0.848600000000     0.000000000000     0.273700000000     0          
H380     H      0.859300000000     0.000000000000     0.243800000000     0          
N381     N      0.770420000000     0.000000000000     0.243800000000     0          
O382     O      0.565000000000     0.500000000000     0.377400000000     0          
C383     C      0.698000000000     0.500000000000     0.281900000000     0          
C384     C      0.714600000000     0.500000000000     0.326100000000     0          
H385     H      0.745800000000     0.500000000000     0.331800000000     0          
C386     C      0.684500000000     0.500000000000     0.362500000000     0          
H387     H      0.695300000000     0.500000000000     0.392300000000     0          
C388     C      0.637700000000     0.500000000000     0.354700000000     0          
C389     C      0.621200000000     0.500000000000     0.310100000000     0          
H390     H      0.590000000000     0.500000000000     0.304500000000     0          
C391     C      0.651400000000     0.500000000000     0.273700000000     0          
H392     H      0.640700000000     0.500000000000     0.243800000000     0          
N393     N      0.729580000000     0.500000000000     0.243800000000     0          
O394     O      0.565000000000     0.000000000000     0.877400000000     0          
C395     C      0.698000000000     0.000000000000     0.781900000000     0          
C396     C      0.714600000000     0.000000000000     0.826100000000     0          
H397     H      0.745800000000     0.000000000000     0.831800000000     0          
C398     C      0.684500000000     0.000000000000     0.862500000000     0          
H399     H      0.695300000000     0.000000000000     0.892300000000     0          
C400     C      0.637700000000     0.000000000000     0.854700000000     0          
C401     C      0.621200000000     0.000000000000     0.810100000000     0          
H402     H      0.590000000000     0.000000000000     0.804500000000     0          
C403     C      0.651400000000     0.000000000000     0.773700000000     0          
H404     H      0.640700000000     0.000000000000     0.743800000000     0          
N405     N      0.729580000000     0.000000000000     0.743800000000     0          
O406     O      0.065000000000     0.500000000000     0.877400000000     0          
C407     C      0.198000000000     0.500000000000     0.781900000000     0          
C408     C      0.214600000000     0.500000000000     0.826100000000     0          
H409     H      0.245800000000     0.500000000000     0.831800000000     0          
C410     C      0.184500000000     0.500000000000     0.862500000000     0          
H411     H      0.195300000000     0.500000000000     0.892300000000     0          
C412     C      0.137700000000     0.500000000000     0.854700000000     0          
C413     C      0.121200000000     0.500000000000     0.810100000000     0          
H414     H      0.090000000000     0.500000000000     0.804500000000     0          
C415     C      0.151400000000     0.500000000000     0.773700000000     0          
H416     H      0.140700000000     0.500000000000     0.743800000000     0          
N417     N      0.229580000000     0.500000000000     0.743800000000     0          
O418     O      0.065000000000     0.000000000000     0.377400000000     0          
O419     O      0.500000000000     0.377400000000     0.565000000000     0          
O420     O      0.500000000000     0.877400000000     0.065000000000     0          
C421     C      0.500000000000     0.781900000000     0.198000000000     0          
C422     C      0.500000000000     0.826100000000     0.214600000000     0          
H423     H      0.500000000000     0.831800000000     0.245800000000     0          
C424     C      0.500000000000     0.862500000000     0.184500000000     0          
H425     H      0.500000000000     0.892300000000     0.195300000000     0          
C426     C      0.500000000000     0.854700000000     0.137700000000     0          
C427     C      0.500000000000     0.810100000000     0.121200000000     0          
H428     H      0.500000000000     0.804500000000     0.090000000000     0          
C429     C      0.500000000000     0.773700000000     0.151400000000     0          
H430     H      0.500000000000     0.743800000000     0.140700000000     0          
N431     N      0.500000000000     0.743800000000     0.229580000000     0          
O432     O      0.000000000000     0.377400000000     0.065000000000     0          
C433     C      0.000000000000     0.281900000000     0.198000000000     0          
C434     C      0.000000000000     0.326100000000     0.214600000000     0          
H435     H      0.000000000000     0.331800000000     0.245800000000     0          
C436     C      0.000000000000     0.362500000000     0.184500000000     0          
H437     H      0.000000000000     0.392300000000     0.195300000000     0          
C438     C      0.000000000000     0.354700000000     0.137700000000     0          
C439     C      0.000000000000     0.310100000000     0.121200000000     0          
H440     H      0.000000000000     0.304500000000     0.090000000000     0          
C441     C      0.000000000000     0.273700000000     0.151400000000     0          
H442     H      0.000000000000     0.243800000000     0.140700000000     0          
N443     N      0.000000000000     0.243800000000     0.229580000000     0          
O444     O      0.000000000000     0.877400000000     0.565000000000     0          
C445     C      0.000000000000     0.781900000000     0.698000000000     0          
C446     C      0.000000000000     0.826100000000     0.714600000000     0          
H447     H      0.000000000000     0.831800000000     0.745800000000     0          
C448     C      0.000000000000     0.862500000000     0.684500000000     0          
H449     H      0.000000000000     0.892300000000     0.695300000000     0          
C450     C      0.000000000000     0.854700000000     0.637700000000     0          
C451     C      0.000000000000     0.810100000000     0.621200000000     0          
H452     H      0.000000000000     0.804500000000     0.590000000000     0          
C453     C      0.000000000000     0.773700000000     0.651400000000     0          
H454     H      0.000000000000     0.743800000000     0.640700000000     0          
N455     N      0.000000000000     0.743800000000     0.729580000000     0          
O456     O      0.500000000000     0.377400000000     0.435000000000     0          
C457     C      0.500000000000     0.281900000000     0.302000000000     0          
C458     C      0.500000000000     0.326100000000     0.285400000000     0          
H459     H      0.500000000000     0.331800000000     0.254200000000     0          
C460     C      0.500000000000     0.362500000000     0.315500000000     0          
H461     H      0.500000000000     0.392300000000     0.304700000000     0          
C462     C      0.500000000000     0.354700000000     0.362300000000     0          
C463     C      0.500000000000     0.310100000000     0.378800000000     0          
H464     H      0.500000000000     0.304500000000     0.410000000000     0          
C465     C      0.500000000000     0.273700000000     0.348600000000     0          
H466     H      0.500000000000     0.243800000000     0.359300000000     0          
N467     N      0.500000000000     0.243800000000     0.270420000000     0          
O468     O      0.500000000000     0.877400000000     0.935000000000     0          
C469     C      0.500000000000     0.781900000000     0.802000000000     0          
C470     C      0.500000000000     0.826100000000     0.785400000000     0          
H471     H      0.500000000000     0.831800000000     0.754200000000     0          
C472     C      0.500000000000     0.862500000000     0.815500000000     0          
H473     H      0.500000000000     0.892300000000     0.804700000000     0          
C474     C      0.500000000000     0.854700000000     0.862300000000     0          
C475     C      0.500000000000     0.810100000000     0.878800000000     0          
H476     H      0.500000000000     0.804500000000     0.910000000000     0          
C477     C      0.500000000000     0.773700000000     0.848600000000     0          
H478     H      0.500000000000     0.743800000000     0.859300000000     0          
N479     N      0.500000000000     0.743800000000     0.770420000000     0          
O480     O      0.000000000000     0.377400000000     0.935000000000     0          
C481     C      0.000000000000     0.281900000000     0.802000000000     0          
C482     C      0.000000000000     0.326100000000     0.785400000000     0          
H483     H      0.000000000000     0.331800000000     0.754200000000     0          
C484     C      0.000000000000     0.362500000000     0.815500000000     0          
H485     H      0.000000000000     0.392300000000     0.804700000000     0          
C486     C      0.000000000000     0.354700000000     0.862300000000     0          
C487     C      0.000000000000     0.310100000000     0.878800000000     0          
H488     H      0.000000000000     0.304500000000     0.910000000000     0          
C489     C      0.000000000000     0.273700000000     0.848600000000     0          
H490     H      0.000000000000     0.243800000000     0.859300000000     0          
N491     N      0.000000000000     0.243800000000     0.770420000000     0          
O492     O      0.000000000000     0.877400000000     0.435000000000     0          
O493     O      0.500000000000     0.622600000000     0.565000000000     0          
C494     C      0.500000000000     0.718100000000     0.698000000000     0          
C495     C      0.500000000000     0.673900000000     0.714600000000     0          
H496     H      0.500000000000     0.668200000000     0.745800000000     0          
C497     C      0.500000000000     0.637500000000     0.684500000000     0          
H498     H      0.500000000000     0.607700000000     0.695300000000     0          
C499     C      0.500000000000     0.645300000000     0.637700000000     0          
C500     C      0.500000000000     0.689900000000     0.621200000000     0          
H501     H      0.500000000000     0.695500000000     0.590000000000     0          
C502     C      0.500000000000     0.726300000000     0.651400000000     0          
H503     H      0.500000000000     0.756200000000     0.640700000000     0          
N504     N      0.500000000000     0.756200000000     0.729580000000     0          
O505     O      0.500000000000     0.122600000000     0.065000000000     0          
C506     C      0.500000000000     0.218100000000     0.198000000000     0          
C507     C      0.500000000000     0.173900000000     0.214600000000     0          
H508     H      0.500000000000     0.168200000000     0.245800000000     0          
C509     C      0.500000000000     0.137500000000     0.184500000000     0          
H510     H      0.500000000000     0.107700000000     0.195300000000     0          
C511     C      0.500000000000     0.145300000000     0.137700000000     0          
C512     C      0.500000000000     0.189900000000     0.121200000000     0          
H513     H      0.500000000000     0.195500000000     0.090000000000     0          
C514     C      0.500000000000     0.226300000000     0.151400000000     0          
H515     H      0.500000000000     0.256200000000     0.140700000000     0          
N516     N      0.500000000000     0.256200000000     0.229580000000     0          
O517     O      0.000000000000     0.622600000000     0.065000000000     0          
O518     O      0.000000000000     0.122600000000     0.565000000000     0          
C519     C      0.000000000000     0.218100000000     0.698000000000     0          
C520     C      0.000000000000     0.173900000000     0.714600000000     0          
H521     H      0.000000000000     0.168200000000     0.745800000000     0          
C522     C      0.000000000000     0.137500000000     0.684500000000     0          
H523     H      0.000000000000     0.107700000000     0.695300000000     0          
C524     C      0.000000000000     0.145300000000     0.637700000000     0          
C525     C      0.000000000000     0.189900000000     0.621200000000     0          
H526     H      0.000000000000     0.195500000000     0.590000000000     0          
C527     C      0.000000000000     0.226300000000     0.651400000000     0          
H528     H      0.000000000000     0.256200000000     0.640700000000     0          
N529     N      0.000000000000     0.256200000000     0.729580000000     0          
O530     O      0.500000000000     0.622600000000     0.435000000000     0          
C531     C      0.500000000000     0.718100000000     0.302000000000     0          
C532     C      0.500000000000     0.673900000000     0.285400000000     0          
H533     H      0.500000000000     0.668200000000     0.254200000000     0          
C534     C      0.500000000000     0.637500000000     0.315500000000     0          
H535     H      0.500000000000     0.607700000000     0.304700000000     0          
C536     C      0.500000000000     0.645300000000     0.362300000000     0          
C537     C      0.500000000000     0.689900000000     0.378800000000     0          
H538     H      0.500000000000     0.695500000000     0.410000000000     0          
C539     C      0.500000000000     0.726300000000     0.348600000000     0          
H540     H      0.500000000000     0.756200000000     0.359300000000     0          
N541     N      0.500000000000     0.756200000000     0.270420000000     0          
O542     O      0.500000000000     0.122600000000     0.935000000000     0          
O543     O      0.000000000000     0.622600000000     0.935000000000     0          
C544     C      0.000000000000     0.718100000000     0.802000000000     0          
C545     C      0.000000000000     0.673900000000     0.785400000000     0          
H546     H      0.000000000000     0.668200000000     0.754200000000     0          
C547     C      0.000000000000     0.637500000000     0.815500000000     0          
H548     H      0.000000000000     0.607700000000     0.804700000000     0          
C549     C      0.000000000000     0.645300000000     0.862300000000     0          
C550     C      0.000000000000     0.689900000000     0.878800000000     0          
H551     H      0.000000000000     0.695500000000     0.910000000000     0          
C552     C      0.000000000000     0.726300000000     0.848600000000     0          
H553     H      0.000000000000     0.756200000000     0.859300000000     0          
N554     N      0.000000000000     0.756200000000     0.770420000000     0          
O555     O      0.000000000000     0.122600000000     0.435000000000     0          
C556     C      0.000000000000     0.218100000000     0.302000000000     0          
C557     C      0.000000000000     0.173900000000     0.285400000000     0          
H558     H      0.000000000000     0.168200000000     0.254200000000     0          
C559     C      0.000000000000     0.137500000000     0.315500000000     0          
H560     H      0.000000000000     0.107700000000     0.304700000000     0          
C561     C      0.000000000000     0.145300000000     0.362300000000     0          
C562     C      0.000000000000     0.189900000000     0.378800000000     0          
H563     H      0.000000000000     0.195500000000     0.410000000000     0          
C564     C      0.000000000000     0.226300000000     0.348600000000     0          
H565     H      0.000000000000     0.256200000000     0.359300000000     0          
N566     N      0.000000000000     0.256200000000     0.270420000000     0          
O567     O      0.377400000000     0.435000000000     0.500000000000     0          
O568     O      0.377400000000     0.935000000000     0.000000000000     0          
O569     O      0.877400000000     0.435000000000     0.000000000000     0          
O570     O      0.877400000000     0.935000000000     0.500000000000     0          
C571     C      0.781900000000     0.802000000000     0.500000000000     0          
C572     C      0.826100000000     0.785400000000     0.500000000000     0          
H573     H      0.831800000000     0.754200000000     0.500000000000     0          
C574     C      0.862500000000     0.815500000000     0.500000000000     0          
H575     H      0.892300000000     0.804700000000     0.500000000000     0          
C576     C      0.854700000000     0.862300000000     0.500000000000     0          
C577     C      0.810100000000     0.878800000000     0.500000000000     0          
H578     H      0.804500000000     0.910000000000     0.500000000000     0          
C579     C      0.773700000000     0.848600000000     0.500000000000     0          
H580     H      0.743800000000     0.859300000000     0.500000000000     0          
N581     N      0.743800000000     0.770420000000     0.500000000000     0          
O582     O      0.377400000000     0.565000000000     0.500000000000     0          
O583     O      0.377400000000     0.065000000000     0.000000000000     0          
C584     C      0.281900000000     0.198000000000     0.000000000000     0          
C585     C      0.326100000000     0.214600000000     0.000000000000     0          
H586     H      0.331800000000     0.245800000000     0.000000000000     0          
C587     C      0.362500000000     0.184500000000     0.000000000000     0          
H588     H      0.392300000000     0.195300000000     0.000000000000     0          
C589     C      0.354700000000     0.137700000000     0.000000000000     0          
C590     C      0.310100000000     0.121200000000     0.000000000000     0          
H591     H      0.304500000000     0.090000000000     0.000000000000     0          
C592     C      0.273700000000     0.151400000000     0.000000000000     0          
H593     H      0.243800000000     0.140700000000     0.000000000000     0          
N594     N      0.243800000000     0.229580000000     0.000000000000     0          
O595     O      0.877400000000     0.565000000000     0.000000000000     0          
C596     C      0.781900000000     0.698000000000     0.000000000000     0          
C597     C      0.826100000000     0.714600000000     0.000000000000     0          
H598     H      0.831800000000     0.745800000000     0.000000000000     0          
C599     C      0.862500000000     0.684500000000     0.000000000000     0          
H600     H      0.892300000000     0.695300000000     0.000000000000     0          
C601     C      0.854700000000     0.637700000000     0.000000000000     0          
C602     C      0.810100000000     0.621200000000     0.000000000000     0          
H603     H      0.804500000000     0.590000000000     0.000000000000     0          
C604     C      0.773700000000     0.651400000000     0.000000000000     0          
H605     H      0.743800000000     0.640700000000     0.000000000000     0          
N606     N      0.743800000000     0.729580000000     0.000000000000     0          
O607     O      0.877400000000     0.065000000000     0.500000000000     0          
O608     O      0.622600000000     0.435000000000     0.500000000000     0          
O609     O      0.622600000000     0.935000000000     0.000000000000     0          
C610     C      0.718100000000     0.802000000000     0.000000000000     0          
C611     C      0.673900000000     0.785400000000     0.000000000000     0          
H612     H      0.668200000000     0.754200000000     0.000000000000     0          
C613     C      0.637500000000     0.815500000000     0.000000000000     0          
H614     H      0.607700000000     0.804700000000     0.000000000000     0          
C615     C      0.645300000000     0.862300000000     0.000000000000     0          
C616     C      0.689900000000     0.878800000000     0.000000000000     0          
H617     H      0.695500000000     0.910000000000     0.000000000000     0          
C618     C      0.726300000000     0.848600000000     0.000000000000     0          
H619     H      0.756200000000     0.859300000000     0.000000000000     0          
N620     N      0.756200000000     0.770420000000     0.000000000000     0          
O621     O      0.122600000000     0.435000000000     0.000000000000     0          
C622     C      0.218100000000     0.302000000000     0.000000000000     0          
C623     C      0.173900000000     0.285400000000     0.000000000000     0          
H624     H      0.168200000000     0.254200000000     0.000000000000     0          
C625     C      0.137500000000     0.315500000000     0.000000000000     0          
H626     H      0.107700000000     0.304700000000     0.000000000000     0          
C627     C      0.145300000000     0.362300000000     0.000000000000     0          
C628     C      0.189900000000     0.378800000000     0.000000000000     0          
H629     H      0.195500000000     0.410000000000     0.000000000000     0          
C630     C      0.226300000000     0.348600000000     0.000000000000     0          
H631     H      0.256200000000     0.359300000000     0.000000000000     0          
N632     N      0.256200000000     0.270420000000     0.000000000000     0          
O633     O      0.122600000000     0.935000000000     0.500000000000     0          
O634     O      0.622600000000     0.565000000000     0.500000000000     0          
C635     C      0.718100000000     0.698000000000     0.500000000000     0          
C636     C      0.673900000000     0.714600000000     0.500000000000     0          
H637     H      0.668200000000     0.745800000000     0.500000000000     0          
C638     C      0.637500000000     0.684500000000     0.500000000000     0          
H639     H      0.607700000000     0.695300000000     0.500000000000     0          
C640     C      0.645300000000     0.637700000000     0.500000000000     0          
C641     C      0.689900000000     0.621200000000     0.500000000000     0          
H642     H      0.695500000000     0.590000000000     0.500000000000     0          
C643     C      0.726300000000     0.651400000000     0.500000000000     0          
H644     H      0.756200000000     0.640700000000     0.500000000000     0          
N645     N      0.756200000000     0.729580000000     0.500000000000     0          
O646     O      0.622600000000     0.065000000000     0.000000000000     0          
O647     O      0.122600000000     0.565000000000     0.000000000000     0          
O648     O      0.122600000000     0.065000000000     0.500000000000     0          
O649     O      0.541000000000     0.541000000000     0.459000000000     0          
O650     O      0.541000000000     0.041000000000     0.959000000000     0          
O651     O      0.041000000000     0.541000000000     0.959000000000     0          
O652     O      0.041000000000     0.041000000000     0.459000000000     0          
O653     O      0.459000000000     0.459000000000     0.459000000000     0          
O654     O      0.459000000000     0.959000000000     0.959000000000     0          
O655     O      0.959000000000     0.459000000000     0.959000000000     0          
O656     O      0.959000000000     0.959000000000     0.459000000000     0          
O657     O      0.459000000000     0.541000000000     0.541000000000     0          
O658     O      0.459000000000     0.041000000000     0.041000000000     0          
O659     O      0.959000000000     0.541000000000     0.041000000000     0          
O660     O      0.959000000000     0.041000000000     0.541000000000     0          
O661     O      0.541000000000     0.459000000000     0.541000000000     0          
O662     O      0.541000000000     0.959000000000     0.041000000000     0          
O663     O      0.041000000000     0.459000000000     0.041000000000     0          
O664     O      0.041000000000     0.959000000000     0.541000000000     0          
O665     O      0.541000000000     0.541000000000     0.541000000000     0          
O666     O      0.541000000000     0.041000000000     0.041000000000     0          
O667     O      0.041000000000     0.541000000000     0.041000000000     0          
O668     O      0.041000000000     0.041000000000     0.541000000000     0          
O669     O      0.459000000000     0.459000000000     0.541000000000     0          
O670     O      0.459000000000     0.959000000000     0.041000000000     0          
O671     O      0.959000000000     0.459000000000     0.041000000000     0          
O672     O      0.959000000000     0.959000000000     0.541000000000     0          
O673     O      0.541000000000     0.459000000000     0.459000000000     0          
O674     O      0.541000000000     0.959000000000     0.959000000000     0          
O675     O      0.041000000000     0.459000000000     0.959000000000     0          
O676     O      0.041000000000     0.959000000000     0.459000000000     0          
O677     O      0.459000000000     0.541000000000     0.459000000000     0          
O678     O      0.459000000000     0.041000000000     0.959000000000     0          
O679     O      0.959000000000     0.541000000000     0.959000000000     0          
O680     O      0.959000000000     0.041000000000     0.459000000000     0          
C681     C      0.500000000000     0.394900000000     0.394900000000     0          
C682     C      0.500000000000     0.894900000000     0.894900000000     0          
C683     C      0.000000000000     0.394900000000     0.894900000000     0          
C684     C      0.000000000000     0.894900000000     0.394900000000     0          
C685     C      0.500000000000     0.605100000000     0.394900000000     0          
C686     C      0.500000000000     0.105100000000     0.894900000000     0          
C687     C      0.000000000000     0.605100000000     0.894900000000     0          
C688     C      0.000000000000     0.105100000000     0.394900000000     0          
C689     C      0.500000000000     0.394900000000     0.605100000000     0          
C690     C      0.500000000000     0.894900000000     0.105100000000     0          
C691     C      0.000000000000     0.394900000000     0.105100000000     0          
C692     C      0.000000000000     0.894900000000     0.605100000000     0          
C693     C      0.500000000000     0.605100000000     0.605100000000     0          
C694     C      0.500000000000     0.105100000000     0.105100000000     0          
C695     C      0.000000000000     0.605100000000     0.105100000000     0          
C696     C      0.000000000000     0.105100000000     0.605100000000     0          
C697     C      0.394900000000     0.500000000000     0.394900000000     0          
C698     C      0.394900000000     0.000000000000     0.894900000000     0          
C699     C      0.894900000000     0.500000000000     0.894900000000     0          
C700     C      0.894900000000     0.000000000000     0.394900000000     0          
C701     C      0.394900000000     0.500000000000     0.605100000000     0          
C702     C      0.394900000000     0.000000000000     0.105100000000     0          
C703     C      0.894900000000     0.500000000000     0.105100000000     0          
C704     C      0.894900000000     0.000000000000     0.605100000000     0          
C705     C      0.605100000000     0.500000000000     0.394900000000     0          
C706     C      0.605100000000     0.000000000000     0.894900000000     0          
C707     C      0.105100000000     0.500000000000     0.894900000000     0          
C708     C      0.105100000000     0.000000000000     0.394900000000     0          
C709     C      0.605100000000     0.500000000000     0.605100000000     0          
C710     C      0.605100000000     0.000000000000     0.105100000000     0          
C711     C      0.105100000000     0.500000000000     0.105100000000     0          
C712     C      0.105100000000     0.000000000000     0.605100000000     0          
C713     C      0.394900000000     0.394900000000     0.500000000000     0          
C714     C      0.394900000000     0.894900000000     0.000000000000     0          
C715     C      0.894900000000     0.394900000000     0.000000000000     0          
C716     C      0.894900000000     0.894900000000     0.500000000000     0          
C717     C      0.605100000000     0.394900000000     0.500000000000     0          
C718     C      0.605100000000     0.894900000000     0.000000000000     0          
C719     C      0.105100000000     0.394900000000     0.000000000000     0          
C720     C      0.105100000000     0.894900000000     0.500000000000     0          
C721     C      0.394900000000     0.605100000000     0.500000000000     0          
C722     C      0.394900000000     0.105100000000     0.000000000000     0          
C723     C      0.894900000000     0.605100000000     0.000000000000     0          
C724     C      0.894900000000     0.105100000000     0.500000000000     0          
C725     C      0.605100000000     0.605100000000     0.500000000000     0          
C726     C      0.605100000000     0.105100000000     0.000000000000     0          
C727     C      0.105100000000     0.605100000000     0.000000000000     0          
C728     C      0.105100000000     0.105100000000     0.500000000000     0          


