data_TEWMIU

_audit_creation_method RASPA-1.0
_audit_creation_date 2020-4-3
_audit_author_name 'Rocio Bueno-Perez'

_cell_length_a    24.3598
_cell_length_b    24.3598
_cell_length_c    24.3598
_cell_angle_alpha 90
_cell_angle_beta  90
_cell_angle_gamma 90
_cell_volume      14455.1

_symmetry_cell_setting          cubic
_symmetry_space_group_name_Hall 'P 1'
_symmetry_space_group_name_H-M  'P 1'
_symmetry_Int_Tables_number     1

_symmetry_equiv_pos_as_xyz 'x,y,z'

loop_
_atom_site_label
_atom_site_type_symbol
_atom_site_fract_x
_atom_site_fract_y
_atom_site_fract_z
_atom_site_charge
Zr1      Zr     0.231560000000     0.153500000000     0.267020000000     0          
O1       O      0.151000000000     0.123450000000     0.268370000000     0          
C1       C      0.104521000000     0.151990000000     0.251660000000     0          
O2       O      0.096440000000     0.205680000000     0.233570000000     0          
C2       C      0.049772000000     0.120380000000     0.251660000000     0          
C3       C      0.000000000000     0.149120000000     0.251660000000     0          
C4       C      0.049772000000     0.062910000000     0.251660000000     0          
H1       H      0.000000000000     0.193870000000     0.251660000000     0          
C5       C      0.000000000000     0.034180000000     0.251660000000     0          
H2       H      0.088523000000     0.040540000000     0.251660000000     0          
O3       O      0.789750000000     0.125600000000     0.345080000000     0          
O4       O      0.818970000000     0.215400000000     0.297910000000     0          
O5       O      0.803670000000     0.196330000000     0.196330000000     0          
O6       O      0.708180000000     0.101530000000     0.294510000000     0          
C6       C      0.792080000000     0.151830000000     0.395479000000     0          
C7       C      0.792080000000     0.120220000000     0.450228000000     0          
C8       C      0.792080000000     0.148950000000     0.500000000000     0          
C9       C      0.792080000000     0.062750000000     0.450228000000     0          
H3       H      0.792080000000     0.193700000000     0.500000000000     0          
C10      C      0.792080000000     0.034010000000     0.500000000000     0          
H4       H      0.792080000000     0.040370000000     0.411477000000     0          
Zr1J     Zr     0.153500000000     0.267020000000     0.231560000000     0          
Zr1H     Zr     0.267020000000     0.231560000000     0.153500000000     0          
O1J      O      0.123450000000     0.268370000000     0.151000000000     0          
O2J      O      0.205680000000     0.233570000000     0.096440000000     0          
C1J      C      0.151990000000     0.251660000000     0.104521000000     0          
C2IA     C      0.950228000000     0.120380000000     0.251660000000     0          
C2J      C      0.120380000000     0.251660000000     0.049772000000     0          
C4IA     C      0.950228000000     0.062910000000     0.251660000000     0          
C1IA     C      0.895479000000     0.151990000000     0.251660000000     0          
C5A      C      0.000000000000     0.965820000000     0.251660000000     0          
C3AA     C      0.149120000000     0.251660000000     0.000000000000     0          
C4J      C      0.062910000000     0.251660000000     0.049772000000     0          
H2IA     H      0.911477000000     0.040540000000     0.251660000000     0          
O1IA     O      0.849000000000     0.123450000000     0.268370000000     0          
O2IA     O      0.903560000000     0.205680000000     0.233570000000     0          
C4A      C      0.950228000000     0.937090000000     0.251660000000     0          
C4Z      C      0.049772000000     0.937090000000     0.251660000000     0          
C2AA     C      0.120380000000     0.251660000000     0.950228000000     0          
H1AA     H      0.193870000000     0.251660000000     0.000000000000     0          
C5AA     C      0.034180000000     0.251660000000     0.000000000000     0          
H2J      H      0.040540000000     0.251660000000     0.088523000000     0          
Zr1IA    Zr     0.768440000000     0.153500000000     0.267020000000     0          
Zr1GA    Zr     0.846500000000     0.267020000000     0.231560000000     0          
C2A      C      0.950228000000     0.879620000000     0.251660000000     0          
H2A      H      0.911477000000     0.959460000000     0.251660000000     0          
C2Z      C      0.049772000000     0.879620000000     0.251660000000     0          
H2Z      H      0.088523000000     0.959460000000     0.251660000000     0          
C4AA     C      0.062910000000     0.251660000000     0.950228000000     0          
C1AA     C      0.151990000000     0.251660000000     0.895479000000     0          
C5D      C      0.965820000000     0.251660000000     0.000000000000     0          
O4E      O      0.702090000000     0.181030000000     0.215400000000     0          
O4MA     O      0.715400000000     0.202090000000     0.318970000000     0          
O2EA     O      0.766430000000     0.096440000000     0.205680000000     0          
O4D      O      0.784600000000     0.297910000000     0.181030000000     0          
O3D      O      0.874400000000     0.345080000000     0.210250000000     0          
O1GA     O      0.876550000000     0.268370000000     0.151000000000     0          
O4NA     O      0.797910000000     0.318970000000     0.284600000000     0          
O6D      O      0.898470000000     0.294510000000     0.291820000000     0          
C3A      C      0.000000000000     0.850880000000     0.251660000000     0          
C1A      C      0.895479000000     0.848010000000     0.251660000000     0          
C1Z      C      0.104521000000     0.848010000000     0.251660000000     0          
H2AA     H      0.040540000000     0.251660000000     0.911477000000     0          
O1AA     O      0.123450000000     0.268370000000     0.849000000000     0          
O2AA     O      0.205680000000     0.233570000000     0.903560000000     0          
C4GA     C      0.937090000000     0.251660000000     0.049772000000     0          
C4D      C      0.937090000000     0.251660000000     0.950228000000     0          
Zr1R     Zr     0.767020000000     0.268440000000     0.346500000000     0          
Zr1EA    Zr     0.732980000000     0.231560000000     0.153500000000     0          
Zr1T     Zr     0.653500000000     0.232980000000     0.268440000000     0          
Zr1V     Zr     0.731560000000     0.346500000000     0.232980000000     0          
C1GA     C      0.848010000000     0.251660000000     0.104521000000     0          
H1A      H      0.000000000000     0.806130000000     0.251660000000     0          
O1A      O      0.849000000000     0.876550000000     0.268370000000     0          
O2A      O      0.903560000000     0.794320000000     0.233570000000     0          
O1Z      O      0.151000000000     0.876550000000     0.268370000000     0          
O2Z      O      0.096440000000     0.794320000000     0.233570000000     0          
Zr1AA    Zr     0.153500000000     0.267020000000     0.768440000000     0          
Zr1CA    Zr     0.267020000000     0.231560000000     0.846500000000     0          
C2GA     C      0.879620000000     0.251660000000     0.049772000000     0          
H2GA     H      0.959460000000     0.251660000000     0.088523000000     0          
C2D      C      0.879620000000     0.251660000000     0.950228000000     0          
H2D      H      0.959460000000     0.251660000000     0.911477000000     0          
O6NA     O      0.794510000000     0.208180000000     0.398470000000     0          
O2GA     O      0.794320000000     0.233570000000     0.096440000000     0          
O4UA     O      0.681030000000     0.284600000000     0.202090000000     0          
O3E      O      0.654920000000     0.210250000000     0.125600000000     0          
O1EA     O      0.731630000000     0.151000000000     0.123450000000     0          
O6E      O      0.705490000000     0.291820000000     0.101530000000     0          
O6UA     O      0.791820000000     0.398470000000     0.205490000000     0          
Zr1A     Zr     0.768440000000     0.846500000000     0.267020000000     0          
Zr1C     Zr     0.846500000000     0.732980000000     0.231560000000     0          
Zr1Z     Zr     0.231560000000     0.846500000000     0.267020000000     0          
Zr1BA    Zr     0.153500000000     0.732980000000     0.231560000000     0          
C3D      C      0.850880000000     0.251660000000     0.000000000000     0          
C1D      C      0.848010000000     0.251660000000     0.895479000000     0          
O3Z      O      0.789750000000     0.874400000000     0.345080000000     0          
H1D      H      0.806130000000     0.251660000000     0.000000000000     0          
O1D      O      0.876550000000     0.268370000000     0.849000000000     0          
O2D      O      0.794320000000     0.233570000000     0.903560000000     0          
C7Y      C      0.792080000000     0.120220000000     0.549772000000     0          
C6Z      C      0.792080000000     0.848170000000     0.395479000000     0          
Zr1NA    Zr     0.767020000000     0.731560000000     0.346500000000     0          
Zr1OA    Zr     0.767020000000     0.268440000000     0.653500000000     0          
Zr1D     Zr     0.846500000000     0.267020000000     0.768440000000     0          
Zr1F     Zr     0.732980000000     0.231560000000     0.846500000000     0          
C9Y      C      0.792080000000     0.062750000000     0.549772000000     0          
C6Y      C      0.792080000000     0.151830000000     0.604521000000     0          
C10K     C      0.792080000000     0.965990000000     0.500000000000     0          
O6R      O      0.794510000000     0.791820000000     0.398470000000     0          
C7Z      C      0.792080000000     0.879780000000     0.450228000000     0          
O6S      O      0.794510000000     0.208180000000     0.601530000000     0          
H4Y      H      0.792080000000     0.040370000000     0.588523000000     0          
O3Y      O      0.789750000000     0.125600000000     0.654920000000     0          
C9Z      C      0.792080000000     0.937250000000     0.450228000000     0          
C9K      C      0.792080000000     0.937250000000     0.549772000000     0          
C8K      C      0.792080000000     0.851050000000     0.500000000000     0          
Zr1B     Zr     0.768440000000     0.153500000000     0.732980000000     0          
H4Z      H      0.792080000000     0.959630000000     0.411477000000     0          
C7K      C      0.792080000000     0.879780000000     0.549772000000     0          
H4K      H      0.792080000000     0.959630000000     0.588523000000     0          
H3K      H      0.792080000000     0.806300000000     0.500000000000     0          
C6K      C      0.792080000000     0.848170000000     0.604521000000     0          
O3K      O      0.789750000000     0.874400000000     0.654920000000     0          
O6OA     O      0.794510000000     0.791820000000     0.601530000000     0          
Zr1X     Zr     0.768440000000     0.846500000000     0.732980000000     0          
Zr1S     Zr     0.767020000000     0.731560000000     0.653500000000     0          
O3       O      0.210250000000     0.874400000000     0.345080000000     0          
O4       O      0.181030000000     0.784600000000     0.297910000000     0          
O5       O      0.196330000000     0.803670000000     0.196330000000     0          
O6       O      0.291820000000     0.898470000000     0.294510000000     0          
C6       C      0.207920000000     0.848170000000     0.395479000000     0          
C7       C      0.207920000000     0.879780000000     0.450228000000     0          
C8       C      0.207920000000     0.851050000000     0.500000000000     0          
C9       C      0.207920000000     0.937250000000     0.450228000000     0          
H3       H      0.207920000000     0.806300000000     0.500000000000     0          
C10      C      0.207920000000     0.965990000000     0.500000000000     0          
H4       H      0.207920000000     0.959630000000     0.411477000000     0          
Zr1H     Zr     0.732980000000     0.768440000000     0.153500000000     0          
O1J      O      0.876550000000     0.731630000000     0.151000000000     0          
O2J      O      0.794320000000     0.766430000000     0.096440000000     0          
C1J      C      0.848010000000     0.748340000000     0.104521000000     0          
C2J      C      0.879620000000     0.748340000000     0.049772000000     0          
C3AA     C      0.850880000000     0.748340000000     0.000000000000     0          
C4J      C      0.937090000000     0.748340000000     0.049772000000     0          
C2AA     C      0.879620000000     0.748340000000     0.950228000000     0          
H1AA     H      0.806130000000     0.748340000000     0.000000000000     0          
C5AA     C      0.965820000000     0.748340000000     0.000000000000     0          
H2J      H      0.959460000000     0.748340000000     0.088523000000     0          
C4AA     C      0.937090000000     0.748340000000     0.950228000000     0          
C1AA     C      0.848010000000     0.748340000000     0.895479000000     0          
C5D      C      0.034180000000     0.748340000000     0.000000000000     0          
O4E      O      0.297910000000     0.818970000000     0.215400000000     0          
O4MA     O      0.284600000000     0.797910000000     0.318970000000     0          
O2EA     O      0.233570000000     0.903560000000     0.205680000000     0          
O4D      O      0.215400000000     0.702090000000     0.181030000000     0          
O3D      O      0.125600000000     0.654920000000     0.210250000000     0          
O1GA     O      0.123450000000     0.731630000000     0.151000000000     0          
O4NA     O      0.202090000000     0.681030000000     0.284600000000     0          
O6D      O      0.101530000000     0.705490000000     0.291820000000     0          
H2AA     H      0.959460000000     0.748340000000     0.911477000000     0          
O1AA     O      0.876550000000     0.731630000000     0.849000000000     0          
O2AA     O      0.794320000000     0.766430000000     0.903560000000     0          
C4GA     C      0.062910000000     0.748340000000     0.049772000000     0          
C4D      C      0.062910000000     0.748340000000     0.950228000000     0          
Zr1R     Zr     0.232980000000     0.731560000000     0.346500000000     0          
Zr1EA    Zr     0.267020000000     0.768440000000     0.153500000000     0          
Zr1T     Zr     0.346500000000     0.767020000000     0.268440000000     0          
Zr1V     Zr     0.268440000000     0.653500000000     0.232980000000     0          
C1GA     C      0.151990000000     0.748340000000     0.104521000000     0          
Zr1AA    Zr     0.846500000000     0.732980000000     0.768440000000     0          
Zr1CA    Zr     0.732980000000     0.768440000000     0.846500000000     0          
C2GA     C      0.120380000000     0.748340000000     0.049772000000     0          
H2GA     H      0.040540000000     0.748340000000     0.088523000000     0          
C2D      C      0.120380000000     0.748340000000     0.950228000000     0          
H2D      H      0.040540000000     0.748340000000     0.911477000000     0          
O6NA     O      0.205490000000     0.791820000000     0.398470000000     0          
O2GA     O      0.205680000000     0.766430000000     0.096440000000     0          
O4UA     O      0.318970000000     0.715400000000     0.202090000000     0          
O3E      O      0.345080000000     0.789750000000     0.125600000000     0          
O1EA     O      0.268370000000     0.849000000000     0.123450000000     0          
O6E      O      0.294510000000     0.708180000000     0.101530000000     0          
O6UA     O      0.208180000000     0.601530000000     0.205490000000     0          
C3D      C      0.149120000000     0.748340000000     0.000000000000     0          
C1D      C      0.151990000000     0.748340000000     0.895479000000     0          
O3Z      O      0.210250000000     0.125600000000     0.345080000000     0          
H1D      H      0.193870000000     0.748340000000     0.000000000000     0          
O1D      O      0.123450000000     0.731630000000     0.849000000000     0          
O2D      O      0.205680000000     0.766430000000     0.903560000000     0          
C7Y      C      0.207920000000     0.879780000000     0.549772000000     0          
C6Z      C      0.207920000000     0.151830000000     0.395479000000     0          
Zr1NA    Zr     0.232980000000     0.268440000000     0.346500000000     0          
Zr1OA    Zr     0.232980000000     0.731560000000     0.653500000000     0          
Zr1D     Zr     0.153500000000     0.732980000000     0.768440000000     0          
Zr1F     Zr     0.267020000000     0.768440000000     0.846500000000     0          
C9Y      C      0.207920000000     0.937250000000     0.549772000000     0          
C6Y      C      0.207920000000     0.848170000000     0.604521000000     0          
C10K     C      0.207920000000     0.034010000000     0.500000000000     0          
O6R      O      0.205490000000     0.208180000000     0.398470000000     0          
C7Z      C      0.207920000000     0.120220000000     0.450228000000     0          
O6S      O      0.205490000000     0.791820000000     0.601530000000     0          
H4Y      H      0.207920000000     0.959630000000     0.588523000000     0          
O3Y      O      0.210250000000     0.874400000000     0.654920000000     0          
C9Z      C      0.207920000000     0.062750000000     0.450228000000     0          
C9K      C      0.207920000000     0.062750000000     0.549772000000     0          
C8K      C      0.207920000000     0.148950000000     0.500000000000     0          
Zr1B     Zr     0.231560000000     0.846500000000     0.732980000000     0          
H4Z      H      0.207920000000     0.040370000000     0.411477000000     0          
C7K      C      0.207920000000     0.120220000000     0.549772000000     0          
H4K      H      0.207920000000     0.040370000000     0.588523000000     0          
H3K      H      0.207920000000     0.193700000000     0.500000000000     0          
C6K      C      0.207920000000     0.151830000000     0.604521000000     0          
O3K      O      0.210250000000     0.125600000000     0.654920000000     0          
O6OA     O      0.205490000000     0.208180000000     0.601530000000     0          
Zr1X     Zr     0.231560000000     0.153500000000     0.732980000000     0          
Zr1S     Zr     0.232980000000     0.268440000000     0.653500000000     0          
O1       O      0.151000000000     0.876550000000     0.731630000000     0          
C1       C      0.104521000000     0.848010000000     0.748340000000     0          
O2       O      0.096440000000     0.794320000000     0.766430000000     0          
C2       C      0.049772000000     0.879620000000     0.748340000000     0          
C3       C      0.000000000000     0.850880000000     0.748340000000     0          
C4       C      0.049772000000     0.937090000000     0.748340000000     0          
H1       H      0.000000000000     0.806130000000     0.748340000000     0          
C5       C      0.000000000000     0.965820000000     0.748340000000     0          
H2       H      0.088523000000     0.959460000000     0.748340000000     0          
O4       O      0.818970000000     0.784600000000     0.702090000000     0          
O5       O      0.803670000000     0.803670000000     0.803670000000     0          
O6       O      0.708180000000     0.898470000000     0.705490000000     0          
C2IA     C      0.950228000000     0.879620000000     0.748340000000     0          
C4IA     C      0.950228000000     0.937090000000     0.748340000000     0          
C1IA     C      0.895479000000     0.848010000000     0.748340000000     0          
C5A      C      0.000000000000     0.034180000000     0.748340000000     0          
H2IA     H      0.911477000000     0.959460000000     0.748340000000     0          
O1IA     O      0.849000000000     0.876550000000     0.731630000000     0          
O2IA     O      0.903560000000     0.794320000000     0.766430000000     0          
C4A      C      0.950228000000     0.062910000000     0.748340000000     0          
C4Z      C      0.049772000000     0.062910000000     0.748340000000     0          
C2A      C      0.950228000000     0.120380000000     0.748340000000     0          
H2A      H      0.911477000000     0.040540000000     0.748340000000     0          
C2Z      C      0.049772000000     0.120380000000     0.748340000000     0          
H2Z      H      0.088523000000     0.040540000000     0.748340000000     0          
O4E      O      0.702090000000     0.818970000000     0.784600000000     0          
O4MA     O      0.715400000000     0.797910000000     0.681030000000     0          
O2EA     O      0.766430000000     0.903560000000     0.794320000000     0          
O4D      O      0.784600000000     0.702090000000     0.818970000000     0          
O3D      O      0.874400000000     0.654920000000     0.789750000000     0          
O4NA     O      0.797910000000     0.681030000000     0.715400000000     0          
O6D      O      0.898470000000     0.705490000000     0.708180000000     0          
C3A      C      0.000000000000     0.149120000000     0.748340000000     0          
C1A      C      0.895479000000     0.151990000000     0.748340000000     0          
C1Z      C      0.104521000000     0.151990000000     0.748340000000     0          
Zr1T     Zr     0.653500000000     0.767020000000     0.731560000000     0          
Zr1V     Zr     0.731560000000     0.653500000000     0.767020000000     0          
H1A      H      0.000000000000     0.193870000000     0.748340000000     0          
O1A      O      0.849000000000     0.123450000000     0.731630000000     0          
O2A      O      0.903560000000     0.205680000000     0.766430000000     0          
O1Z      O      0.151000000000     0.123450000000     0.731630000000     0          
O2Z      O      0.096440000000     0.205680000000     0.766430000000     0          
O4UA     O      0.681030000000     0.715400000000     0.797910000000     0          
O3E      O      0.654920000000     0.789750000000     0.874400000000     0          
O1EA     O      0.731630000000     0.849000000000     0.876550000000     0          
O6E      O      0.705490000000     0.708180000000     0.898470000000     0          
O6UA     O      0.791820000000     0.601530000000     0.794510000000     0          
O4       O      0.181030000000     0.215400000000     0.702090000000     0          
O5       O      0.196330000000     0.196330000000     0.803670000000     0          
O6       O      0.291820000000     0.101530000000     0.705490000000     0          
O4E      O      0.297910000000     0.181030000000     0.784600000000     0          
O4MA     O      0.284600000000     0.202090000000     0.681030000000     0          
O2EA     O      0.233570000000     0.096440000000     0.794320000000     0          
O4D      O      0.215400000000     0.297910000000     0.818970000000     0          
O3D      O      0.125600000000     0.345080000000     0.789750000000     0          
O4NA     O      0.202090000000     0.318970000000     0.715400000000     0          
O6D      O      0.101530000000     0.294510000000     0.708180000000     0          
Zr1T     Zr     0.346500000000     0.232980000000     0.731560000000     0          
Zr1V     Zr     0.268440000000     0.346500000000     0.767020000000     0          
O4UA     O      0.318970000000     0.284600000000     0.797910000000     0          
O3E      O      0.345080000000     0.210250000000     0.874400000000     0          
O1EA     O      0.268370000000     0.151000000000     0.876550000000     0          
O6E      O      0.294510000000     0.291820000000     0.898470000000     0          
O6UA     O      0.208180000000     0.398470000000     0.794510000000     0          
O1       O      0.268370000000     0.151000000000     0.123450000000     0          
C1       C      0.251660000000     0.104521000000     0.151990000000     0          
O2       O      0.233570000000     0.096440000000     0.205680000000     0          
C2       C      0.251660000000     0.049772000000     0.120380000000     0          
C3       C      0.251660000000     0.000000000000     0.149120000000     0          
C4       C      0.251660000000     0.049772000000     0.062910000000     0          
H1       H      0.251660000000     0.000000000000     0.193870000000     0          
C5       C      0.251660000000     0.000000000000     0.034180000000     0          
H2       H      0.251660000000     0.088523000000     0.040540000000     0          
C6       C      0.395479000000     0.792080000000     0.151830000000     0          
C7       C      0.450228000000     0.792080000000     0.120220000000     0          
C8       C      0.500000000000     0.792080000000     0.148950000000     0          
C9       C      0.450228000000     0.792080000000     0.062750000000     0          
H3       H      0.500000000000     0.792080000000     0.193700000000     0          
C10      C      0.500000000000     0.792080000000     0.034010000000     0          
H4       H      0.411477000000     0.792080000000     0.040370000000     0          
C2IA     C      0.251660000000     0.950228000000     0.120380000000     0          
C4IA     C      0.251660000000     0.950228000000     0.062910000000     0          
C1IA     C      0.251660000000     0.895479000000     0.151990000000     0          
C5A      C      0.251660000000     0.000000000000     0.965820000000     0          
H2IA     H      0.251660000000     0.911477000000     0.040540000000     0          
C4A      C      0.251660000000     0.950228000000     0.937090000000     0          
C4Z      C      0.251660000000     0.049772000000     0.937090000000     0          
C2A      C      0.251660000000     0.950228000000     0.879620000000     0          
H2A      H      0.251660000000     0.911477000000     0.959460000000     0          
C2Z      C      0.251660000000     0.049772000000     0.879620000000     0          
H2Z      H      0.251660000000     0.088523000000     0.959460000000     0          
C3A      C      0.251660000000     0.000000000000     0.850880000000     0          
C1A      C      0.251660000000     0.895479000000     0.848010000000     0          
C1Z      C      0.251660000000     0.104521000000     0.848010000000     0          
H1A      H      0.251660000000     0.000000000000     0.806130000000     0          
O1A      O      0.268370000000     0.849000000000     0.876550000000     0          
O2A      O      0.233570000000     0.903560000000     0.794320000000     0          
O6NA     O      0.398470000000     0.794510000000     0.208180000000     0          
O3Z      O      0.345080000000     0.789750000000     0.874400000000     0          
C7Y      C      0.549772000000     0.792080000000     0.120220000000     0          
C6Z      C      0.395479000000     0.792080000000     0.848170000000     0          
Zr1NA    Zr     0.346500000000     0.767020000000     0.731560000000     0          
Zr1OA    Zr     0.653500000000     0.767020000000     0.268440000000     0          
C9Y      C      0.549772000000     0.792080000000     0.062750000000     0          
C6Y      C      0.604521000000     0.792080000000     0.151830000000     0          
C10K     C      0.500000000000     0.792080000000     0.965990000000     0          
O6R      O      0.398470000000     0.794510000000     0.791820000000     0          
C7Z      C      0.450228000000     0.792080000000     0.879780000000     0          
O6S      O      0.601530000000     0.794510000000     0.208180000000     0          
H4Y      H      0.588523000000     0.792080000000     0.040370000000     0          
O3Y      O      0.654920000000     0.789750000000     0.125600000000     0          
C9Z      C      0.450228000000     0.792080000000     0.937250000000     0          
C9K      C      0.549772000000     0.792080000000     0.937250000000     0          
C8K      C      0.500000000000     0.792080000000     0.851050000000     0          
H4Z      H      0.411477000000     0.792080000000     0.959630000000     0          
C7K      C      0.549772000000     0.792080000000     0.879780000000     0          
H4K      H      0.588523000000     0.792080000000     0.959630000000     0          
H3K      H      0.500000000000     0.792080000000     0.806300000000     0          
C6K      C      0.604521000000     0.792080000000     0.848170000000     0          
O6OA     O      0.601530000000     0.794510000000     0.791820000000     0          
O1       O      0.731630000000     0.849000000000     0.123450000000     0          
C1       C      0.748340000000     0.895479000000     0.151990000000     0          
O2       O      0.766430000000     0.903560000000     0.205680000000     0          
C2       C      0.748340000000     0.950228000000     0.120380000000     0          
C3       C      0.748340000000     0.000000000000     0.149120000000     0          
C4       C      0.748340000000     0.950228000000     0.062910000000     0          
H1       H      0.748340000000     0.000000000000     0.193870000000     0          
C5       C      0.748340000000     0.000000000000     0.034180000000     0          
H2       H      0.748340000000     0.911477000000     0.040540000000     0          
C6       C      0.604521000000     0.207920000000     0.151830000000     0          
C7       C      0.549772000000     0.207920000000     0.120220000000     0          
C8       C      0.500000000000     0.207920000000     0.148950000000     0          
C9       C      0.549772000000     0.207920000000     0.062750000000     0          
H3       H      0.500000000000     0.207920000000     0.193700000000     0          
C10      C      0.500000000000     0.207920000000     0.034010000000     0          
H4       H      0.588523000000     0.207920000000     0.040370000000     0          
C2IA     C      0.748340000000     0.049772000000     0.120380000000     0          
C4IA     C      0.748340000000     0.049772000000     0.062910000000     0          
C1IA     C      0.748340000000     0.104521000000     0.151990000000     0          
C5A      C      0.748340000000     0.000000000000     0.965820000000     0          
H2IA     H      0.748340000000     0.088523000000     0.040540000000     0          
C4A      C      0.748340000000     0.049772000000     0.937090000000     0          
C4Z      C      0.748340000000     0.950228000000     0.937090000000     0          
C2A      C      0.748340000000     0.049772000000     0.879620000000     0          
H2A      H      0.748340000000     0.088523000000     0.959460000000     0          
C2Z      C      0.748340000000     0.950228000000     0.879620000000     0          
H2Z      H      0.748340000000     0.911477000000     0.959460000000     0          
C3A      C      0.748340000000     0.000000000000     0.850880000000     0          
C1A      C      0.748340000000     0.104521000000     0.848010000000     0          
C1Z      C      0.748340000000     0.895479000000     0.848010000000     0          
H1A      H      0.748340000000     0.000000000000     0.806130000000     0          
O1A      O      0.731630000000     0.151000000000     0.876550000000     0          
O2A      O      0.766430000000     0.096440000000     0.794320000000     0          
O6NA     O      0.601530000000     0.205490000000     0.208180000000     0          
O3Z      O      0.654920000000     0.210250000000     0.874400000000     0          
C7Y      C      0.450228000000     0.207920000000     0.120220000000     0          
C6Z      C      0.604521000000     0.207920000000     0.848170000000     0          
Zr1NA    Zr     0.653500000000     0.232980000000     0.731560000000     0          
Zr1OA    Zr     0.346500000000     0.232980000000     0.268440000000     0          
C9Y      C      0.450228000000     0.207920000000     0.062750000000     0          
C6Y      C      0.395479000000     0.207920000000     0.151830000000     0          
C10K     C      0.500000000000     0.207920000000     0.965990000000     0          
O6R      O      0.601530000000     0.205490000000     0.791820000000     0          
C7Z      C      0.549772000000     0.207920000000     0.879780000000     0          
O6S      O      0.398470000000     0.205490000000     0.208180000000     0          
H4Y      H      0.411477000000     0.207920000000     0.040370000000     0          
O3Y      O      0.345080000000     0.210250000000     0.125600000000     0          
C9Z      C      0.549772000000     0.207920000000     0.937250000000     0          
C9K      C      0.450228000000     0.207920000000     0.937250000000     0          
C8K      C      0.500000000000     0.207920000000     0.851050000000     0          
H4Z      H      0.588523000000     0.207920000000     0.959630000000     0          
C7K      C      0.450228000000     0.207920000000     0.879780000000     0          
H4K      H      0.411477000000     0.207920000000     0.959630000000     0          
H3K      H      0.500000000000     0.207920000000     0.806300000000     0          
C6K      C      0.395479000000     0.207920000000     0.848170000000     0          
O6OA     O      0.398470000000     0.205490000000     0.791820000000     0          
C6       C      0.151830000000     0.395479000000     0.792080000000     0          
C7       C      0.120220000000     0.450228000000     0.792080000000     0          
C8       C      0.148950000000     0.500000000000     0.792080000000     0          
C9       C      0.062750000000     0.450228000000     0.792080000000     0          
H3       H      0.193700000000     0.500000000000     0.792080000000     0          
C10      C      0.034010000000     0.500000000000     0.792080000000     0          
H4       H      0.040370000000     0.411477000000     0.792080000000     0          
O3Z      O      0.874400000000     0.345080000000     0.789750000000     0          
C7Y      C      0.120220000000     0.549772000000     0.792080000000     0          
C6Z      C      0.848170000000     0.395479000000     0.792080000000     0          
Zr1NA    Zr     0.731560000000     0.346500000000     0.767020000000     0          
Zr1OA    Zr     0.268440000000     0.653500000000     0.767020000000     0          
C9Y      C      0.062750000000     0.549772000000     0.792080000000     0          
C6Y      C      0.151830000000     0.604521000000     0.792080000000     0          
C10K     C      0.965990000000     0.500000000000     0.792080000000     0          
O6R      O      0.791820000000     0.398470000000     0.794510000000     0          
C7Z      C      0.879780000000     0.450228000000     0.792080000000     0          
O6S      O      0.208180000000     0.601530000000     0.794510000000     0          
H4Y      H      0.040370000000     0.588523000000     0.792080000000     0          
O3Y      O      0.125600000000     0.654920000000     0.789750000000     0          
C9Z      C      0.937250000000     0.450228000000     0.792080000000     0          
C9K      C      0.937250000000     0.549772000000     0.792080000000     0          
C8K      C      0.851050000000     0.500000000000     0.792080000000     0          
H4Z      H      0.959630000000     0.411477000000     0.792080000000     0          
C7K      C      0.879780000000     0.549772000000     0.792080000000     0          
H4K      H      0.959630000000     0.588523000000     0.792080000000     0          
H3K      H      0.806300000000     0.500000000000     0.792080000000     0          
C6K      C      0.848170000000     0.604521000000     0.792080000000     0          
C6       C      0.151830000000     0.604521000000     0.207920000000     0          
C7       C      0.120220000000     0.549772000000     0.207920000000     0          
C8       C      0.148950000000     0.500000000000     0.207920000000     0          
C9       C      0.062750000000     0.549772000000     0.207920000000     0          
H3       H      0.193700000000     0.500000000000     0.207920000000     0          
C10      C      0.034010000000     0.500000000000     0.207920000000     0          
H4       H      0.040370000000     0.588523000000     0.207920000000     0          
O3Z      O      0.874400000000     0.654920000000     0.210250000000     0          
C7Y      C      0.120220000000     0.450228000000     0.207920000000     0          
C6Z      C      0.848170000000     0.604521000000     0.207920000000     0          
Zr1NA    Zr     0.731560000000     0.653500000000     0.232980000000     0          
Zr1OA    Zr     0.268440000000     0.346500000000     0.232980000000     0          
C9Y      C      0.062750000000     0.450228000000     0.207920000000     0          
C6Y      C      0.151830000000     0.395479000000     0.207920000000     0          
C10K     C      0.965990000000     0.500000000000     0.207920000000     0          
O6R      O      0.791820000000     0.601530000000     0.205490000000     0          
C7Z      C      0.879780000000     0.549772000000     0.207920000000     0          
O6S      O      0.208180000000     0.398470000000     0.205490000000     0          
H4Y      H      0.040370000000     0.411477000000     0.207920000000     0          
O3Y      O      0.125600000000     0.345080000000     0.210250000000     0          
C9Z      C      0.937250000000     0.549772000000     0.207920000000     0          
C9K      C      0.937250000000     0.450228000000     0.207920000000     0          
C8K      C      0.851050000000     0.500000000000     0.207920000000     0          
H4Z      H      0.959630000000     0.588523000000     0.207920000000     0          
C7K      C      0.879780000000     0.450228000000     0.207920000000     0          
H4K      H      0.959630000000     0.411477000000     0.207920000000     0          
H3K      H      0.806300000000     0.500000000000     0.207920000000     0          
C6K      C      0.848170000000     0.395479000000     0.207920000000     0          
O4       O      0.181030000000     0.784600000000     0.702090000000     0          
O5       O      0.196330000000     0.803670000000     0.803670000000     0          
O6       O      0.291820000000     0.898470000000     0.705490000000     0          
O4E      O      0.297910000000     0.818970000000     0.784600000000     0          
O4MA     O      0.284600000000     0.797910000000     0.681030000000     0          
O4D      O      0.215400000000     0.702090000000     0.818970000000     0          
O4NA     O      0.202090000000     0.681030000000     0.715400000000     0          
O6D      O      0.101530000000     0.705490000000     0.708180000000     0          
O4UA     O      0.318970000000     0.715400000000     0.797910000000     0          
O6E      O      0.294510000000     0.708180000000     0.898470000000     0          
O4       O      0.818970000000     0.215400000000     0.702090000000     0          
O5       O      0.803670000000     0.196330000000     0.803670000000     0          
O6       O      0.708180000000     0.101530000000     0.705490000000     0          
O4E      O      0.702090000000     0.181030000000     0.784600000000     0          
O4MA     O      0.715400000000     0.202090000000     0.681030000000     0          
O4D      O      0.784600000000     0.297910000000     0.818970000000     0          
O4NA     O      0.797910000000     0.318970000000     0.715400000000     0          
O6D      O      0.898470000000     0.294510000000     0.708180000000     0          
O4UA     O      0.681030000000     0.284600000000     0.797910000000     0          
O6E      O      0.705490000000     0.291820000000     0.898470000000     0          
O4       O      0.181030000000     0.215400000000     0.297910000000     0          
O5       O      0.196330000000     0.196330000000     0.196330000000     0          
O6       O      0.291820000000     0.101530000000     0.294510000000     0          
O4E      O      0.297910000000     0.181030000000     0.215400000000     0          
O4MA     O      0.284600000000     0.202090000000     0.318970000000     0          
O4D      O      0.215400000000     0.297910000000     0.181030000000     0          
O4NA     O      0.202090000000     0.318970000000     0.284600000000     0          
O6D      O      0.101530000000     0.294510000000     0.291820000000     0          
O4UA     O      0.318970000000     0.284600000000     0.202090000000     0          
O6E      O      0.294510000000     0.291820000000     0.101530000000     0          
O4       O      0.818970000000     0.784600000000     0.297910000000     0          
O5       O      0.803670000000     0.803670000000     0.196330000000     0          
O6       O      0.708180000000     0.898470000000     0.294510000000     0          
O4E      O      0.702090000000     0.818970000000     0.215400000000     0          
O4MA     O      0.715400000000     0.797910000000     0.318970000000     0          
O4D      O      0.784600000000     0.702090000000     0.181030000000     0          
O4NA     O      0.797910000000     0.681030000000     0.284600000000     0          
O6D      O      0.898470000000     0.705490000000     0.291820000000     0          
O4UA     O      0.681030000000     0.715400000000     0.202090000000     0          
O6E      O      0.705490000000     0.708180000000     0.101530000000     0          
O1       O      0.651000000000     0.623450000000     0.768370000000     0          
C1       C      0.604521000000     0.651990000000     0.751660000000     0          
O2       O      0.596440000000     0.705680000000     0.733570000000     0          
C2       C      0.549772000000     0.620380000000     0.751660000000     0          
C3       C      0.500000000000     0.649120000000     0.751660000000     0          
C4       C      0.549772000000     0.562910000000     0.751660000000     0          
H1       H      0.500000000000     0.693870000000     0.751660000000     0          
C5       C      0.500000000000     0.534180000000     0.751660000000     0          
H2       H      0.588523000000     0.540540000000     0.751660000000     0          
O3       O      0.289750000000     0.625600000000     0.845080000000     0          
O5       O      0.303670000000     0.696330000000     0.696330000000     0          
C6       C      0.292080000000     0.651830000000     0.895479000000     0          
C7       C      0.292080000000     0.620220000000     0.950228000000     0          
C8       C      0.292080000000     0.648950000000     0.000000000000     0          
C9       C      0.292080000000     0.562750000000     0.950228000000     0          
H3       H      0.292080000000     0.693700000000     0.000000000000     0          
C10      C      0.292080000000     0.534010000000     0.000000000000     0          
H4       H      0.292080000000     0.540370000000     0.911477000000     0          
O1J      O      0.623450000000     0.768370000000     0.651000000000     0          
O2J      O      0.705680000000     0.733570000000     0.596440000000     0          
C1J      C      0.651990000000     0.751660000000     0.604521000000     0          
C2IA     C      0.450228000000     0.620380000000     0.751660000000     0          
C2J      C      0.620380000000     0.751660000000     0.549772000000     0          
C4IA     C      0.450228000000     0.562910000000     0.751660000000     0          
C1IA     C      0.395479000000     0.651990000000     0.751660000000     0          
C5A      C      0.500000000000     0.465820000000     0.751660000000     0          
C3AA     C      0.649120000000     0.751660000000     0.500000000000     0          
C4J      C      0.562910000000     0.751660000000     0.549772000000     0          
H2IA     H      0.411477000000     0.540540000000     0.751660000000     0          
O1IA     O      0.349000000000     0.623450000000     0.768370000000     0          
O2IA     O      0.403560000000     0.705680000000     0.733570000000     0          
C4A      C      0.450228000000     0.437090000000     0.751660000000     0          
C4Z      C      0.549772000000     0.437090000000     0.751660000000     0          
C2AA     C      0.620380000000     0.751660000000     0.450228000000     0          
H1AA     H      0.693870000000     0.751660000000     0.500000000000     0          
C5AA     C      0.534180000000     0.751660000000     0.500000000000     0          
H2J      H      0.540540000000     0.751660000000     0.588523000000     0          
C2A      C      0.450228000000     0.379620000000     0.751660000000     0          
H2A      H      0.411477000000     0.459460000000     0.751660000000     0          
C2Z      C      0.549772000000     0.379620000000     0.751660000000     0          
H2Z      H      0.588523000000     0.459460000000     0.751660000000     0          
C4AA     C      0.562910000000     0.751660000000     0.450228000000     0          
C1AA     C      0.651990000000     0.751660000000     0.395479000000     0          
C5D      C      0.465820000000     0.751660000000     0.500000000000     0          
O2EA     O      0.266430000000     0.596440000000     0.705680000000     0          
O3D      O      0.374400000000     0.845080000000     0.710250000000     0          
O1GA     O      0.376550000000     0.768370000000     0.651000000000     0          
C3A      C      0.500000000000     0.350880000000     0.751660000000     0          
C1A      C      0.395479000000     0.348010000000     0.751660000000     0          
C1Z      C      0.604521000000     0.348010000000     0.751660000000     0          
H2AA     H      0.540540000000     0.751660000000     0.411477000000     0          
O1AA     O      0.623450000000     0.768370000000     0.349000000000     0          
O2AA     O      0.705680000000     0.733570000000     0.403560000000     0          
C4GA     C      0.437090000000     0.751660000000     0.549772000000     0          
C4D      C      0.437090000000     0.751660000000     0.450228000000     0          
C1GA     C      0.348010000000     0.751660000000     0.604521000000     0          
H1A      H      0.500000000000     0.306130000000     0.751660000000     0          
O1A      O      0.349000000000     0.376550000000     0.768370000000     0          
O2A      O      0.403560000000     0.294320000000     0.733570000000     0          
O1Z      O      0.651000000000     0.376550000000     0.768370000000     0          
O2Z      O      0.596440000000     0.294320000000     0.733570000000     0          
C2GA     C      0.379620000000     0.751660000000     0.549772000000     0          
H2GA     H      0.459460000000     0.751660000000     0.588523000000     0          
C2D      C      0.379620000000     0.751660000000     0.450228000000     0          
H2D      H      0.459460000000     0.751660000000     0.411477000000     0          
O2GA     O      0.294320000000     0.733570000000     0.596440000000     0          
O3E      O      0.154920000000     0.710250000000     0.625600000000     0          
O1EA     O      0.231630000000     0.651000000000     0.623450000000     0          
C3D      C      0.350880000000     0.751660000000     0.500000000000     0          
C1D      C      0.348010000000     0.751660000000     0.395479000000     0          
O3Z      O      0.289750000000     0.374400000000     0.845080000000     0          
H1D      H      0.306130000000     0.751660000000     0.500000000000     0          
O1D      O      0.376550000000     0.768370000000     0.349000000000     0          
O2D      O      0.294320000000     0.733570000000     0.403560000000     0          
C7Y      C      0.292080000000     0.620220000000     0.049772000000     0          
C6Z      C      0.292080000000     0.348170000000     0.895479000000     0          
C9Y      C      0.292080000000     0.562750000000     0.049772000000     0          
C6Y      C      0.292080000000     0.651830000000     0.104521000000     0          
C10K     C      0.292080000000     0.465990000000     0.000000000000     0          
C7Z      C      0.292080000000     0.379780000000     0.950228000000     0          
H4Y      H      0.292080000000     0.540370000000     0.088523000000     0          
O3Y      O      0.289750000000     0.625600000000     0.154920000000     0          
C9Z      C      0.292080000000     0.437250000000     0.950228000000     0          
C9K      C      0.292080000000     0.437250000000     0.049772000000     0          
C8K      C      0.292080000000     0.351050000000     0.000000000000     0          
H4Z      H      0.292080000000     0.459630000000     0.911477000000     0          
C7K      C      0.292080000000     0.379780000000     0.049772000000     0          
H4K      H      0.292080000000     0.459630000000     0.088523000000     0          
H3K      H      0.292080000000     0.306300000000     0.000000000000     0          
C6K      C      0.292080000000     0.348170000000     0.104521000000     0          
O3K      O      0.289750000000     0.374400000000     0.154920000000     0          
O3       O      0.710250000000     0.374400000000     0.845080000000     0          
O5       O      0.696330000000     0.303670000000     0.696330000000     0          
C6       C      0.707920000000     0.348170000000     0.895479000000     0          
C7       C      0.707920000000     0.379780000000     0.950228000000     0          
C8       C      0.707920000000     0.351050000000     0.000000000000     0          
C9       C      0.707920000000     0.437250000000     0.950228000000     0          
H3       H      0.707920000000     0.306300000000     0.000000000000     0          
C10      C      0.707920000000     0.465990000000     0.000000000000     0          
H4       H      0.707920000000     0.459630000000     0.911477000000     0          
O1J      O      0.376550000000     0.231630000000     0.651000000000     0          
O2J      O      0.294320000000     0.266430000000     0.596440000000     0          
C1J      C      0.348010000000     0.248340000000     0.604521000000     0          
C2J      C      0.379620000000     0.248340000000     0.549772000000     0          
C3AA     C      0.350880000000     0.248340000000     0.500000000000     0          
C4J      C      0.437090000000     0.248340000000     0.549772000000     0          
C2AA     C      0.379620000000     0.248340000000     0.450228000000     0          
H1AA     H      0.306130000000     0.248340000000     0.500000000000     0          
C5AA     C      0.465820000000     0.248340000000     0.500000000000     0          
H2J      H      0.459460000000     0.248340000000     0.588523000000     0          
C4AA     C      0.437090000000     0.248340000000     0.450228000000     0          
C1AA     C      0.348010000000     0.248340000000     0.395479000000     0          
C5D      C      0.534180000000     0.248340000000     0.500000000000     0          
O2EA     O      0.733570000000     0.403560000000     0.705680000000     0          
O3D      O      0.625600000000     0.154920000000     0.710250000000     0          
O1GA     O      0.623450000000     0.231630000000     0.651000000000     0          
H2AA     H      0.459460000000     0.248340000000     0.411477000000     0          
O1AA     O      0.376550000000     0.231630000000     0.349000000000     0          
O2AA     O      0.294320000000     0.266430000000     0.403560000000     0          
C4GA     C      0.562910000000     0.248340000000     0.549772000000     0          
C4D      C      0.562910000000     0.248340000000     0.450228000000     0          
C1GA     C      0.651990000000     0.248340000000     0.604521000000     0          
C2GA     C      0.620380000000     0.248340000000     0.549772000000     0          
H2GA     H      0.540540000000     0.248340000000     0.588523000000     0          
C2D      C      0.620380000000     0.248340000000     0.450228000000     0          
H2D      H      0.540540000000     0.248340000000     0.411477000000     0          
O2GA     O      0.705680000000     0.266430000000     0.596440000000     0          
O3E      O      0.845080000000     0.289750000000     0.625600000000     0          
O1EA     O      0.768370000000     0.349000000000     0.623450000000     0          
C3D      C      0.649120000000     0.248340000000     0.500000000000     0          
C1D      C      0.651990000000     0.248340000000     0.395479000000     0          
O3Z      O      0.710250000000     0.625600000000     0.845080000000     0          
H1D      H      0.693870000000     0.248340000000     0.500000000000     0          
O1D      O      0.623450000000     0.231630000000     0.349000000000     0          
O2D      O      0.705680000000     0.266430000000     0.403560000000     0          
C7Y      C      0.707920000000     0.379780000000     0.049772000000     0          
C6Z      C      0.707920000000     0.651830000000     0.895479000000     0          
C9Y      C      0.707920000000     0.437250000000     0.049772000000     0          
C6Y      C      0.707920000000     0.348170000000     0.104521000000     0          
C10K     C      0.707920000000     0.534010000000     0.000000000000     0          
C7Z      C      0.707920000000     0.620220000000     0.950228000000     0          
H4Y      H      0.707920000000     0.459630000000     0.088523000000     0          
O3Y      O      0.710250000000     0.374400000000     0.154920000000     0          
C9Z      C      0.707920000000     0.562750000000     0.950228000000     0          
C9K      C      0.707920000000     0.562750000000     0.049772000000     0          
C8K      C      0.707920000000     0.648950000000     0.000000000000     0          
H4Z      H      0.707920000000     0.540370000000     0.911477000000     0          
C7K      C      0.707920000000     0.620220000000     0.049772000000     0          
H4K      H      0.707920000000     0.540370000000     0.088523000000     0          
H3K      H      0.707920000000     0.693700000000     0.000000000000     0          
C6K      C      0.707920000000     0.651830000000     0.104521000000     0          
O3K      O      0.710250000000     0.625600000000     0.154920000000     0          
O1       O      0.651000000000     0.376550000000     0.231630000000     0          
C1       C      0.604521000000     0.348010000000     0.248340000000     0          
O2       O      0.596440000000     0.294320000000     0.266430000000     0          
C2       C      0.549772000000     0.379620000000     0.248340000000     0          
C3       C      0.500000000000     0.350880000000     0.248340000000     0          
C4       C      0.549772000000     0.437090000000     0.248340000000     0          
H1       H      0.500000000000     0.306130000000     0.248340000000     0          
C5       C      0.500000000000     0.465820000000     0.248340000000     0          
H2       H      0.588523000000     0.459460000000     0.248340000000     0          
O5       O      0.303670000000     0.303670000000     0.303670000000     0          
C2IA     C      0.450228000000     0.379620000000     0.248340000000     0          
C4IA     C      0.450228000000     0.437090000000     0.248340000000     0          
C1IA     C      0.395479000000     0.348010000000     0.248340000000     0          
C5A      C      0.500000000000     0.534180000000     0.248340000000     0          
H2IA     H      0.411477000000     0.459460000000     0.248340000000     0          
O1IA     O      0.349000000000     0.376550000000     0.231630000000     0          
O2IA     O      0.403560000000     0.294320000000     0.266430000000     0          
C4A      C      0.450228000000     0.562910000000     0.248340000000     0          
C4Z      C      0.549772000000     0.562910000000     0.248340000000     0          
C2A      C      0.450228000000     0.620380000000     0.248340000000     0          
H2A      H      0.411477000000     0.540540000000     0.248340000000     0          
C2Z      C      0.549772000000     0.620380000000     0.248340000000     0          
H2Z      H      0.588523000000     0.540540000000     0.248340000000     0          
O2EA     O      0.266430000000     0.403560000000     0.294320000000     0          
O3D      O      0.374400000000     0.154920000000     0.289750000000     0          
C3A      C      0.500000000000     0.649120000000     0.248340000000     0          
C1A      C      0.395479000000     0.651990000000     0.248340000000     0          
C1Z      C      0.604521000000     0.651990000000     0.248340000000     0          
H1A      H      0.500000000000     0.693870000000     0.248340000000     0          
O1A      O      0.349000000000     0.623450000000     0.231630000000     0          
O2A      O      0.403560000000     0.705680000000     0.266430000000     0          
O1Z      O      0.651000000000     0.623450000000     0.231630000000     0          
O2Z      O      0.596440000000     0.705680000000     0.266430000000     0          
O3E      O      0.154920000000     0.289750000000     0.374400000000     0          
O1EA     O      0.231630000000     0.349000000000     0.376550000000     0          
O5       O      0.696330000000     0.696330000000     0.303670000000     0          
O2EA     O      0.733570000000     0.596440000000     0.294320000000     0          
O3D      O      0.625600000000     0.845080000000     0.289750000000     0          
O3E      O      0.845080000000     0.710250000000     0.374400000000     0          
O1EA     O      0.768370000000     0.651000000000     0.376550000000     0          
O1       O      0.768370000000     0.651000000000     0.623450000000     0          
C1       C      0.751660000000     0.604521000000     0.651990000000     0          
O2       O      0.733570000000     0.596440000000     0.705680000000     0          
C2       C      0.751660000000     0.549772000000     0.620380000000     0          
C3       C      0.751660000000     0.500000000000     0.649120000000     0          
C4       C      0.751660000000     0.549772000000     0.562910000000     0          
H1       H      0.751660000000     0.500000000000     0.693870000000     0          
C5       C      0.751660000000     0.500000000000     0.534180000000     0          
H2       H      0.751660000000     0.588523000000     0.540540000000     0          
C6       C      0.895479000000     0.292080000000     0.651830000000     0          
C7       C      0.950228000000     0.292080000000     0.620220000000     0          
C8       C      0.000000000000     0.292080000000     0.648950000000     0          
C9       C      0.950228000000     0.292080000000     0.562750000000     0          
H3       H      0.000000000000     0.292080000000     0.693700000000     0          
C10      C      0.000000000000     0.292080000000     0.534010000000     0          
H4       H      0.911477000000     0.292080000000     0.540370000000     0          
C2IA     C      0.751660000000     0.450228000000     0.620380000000     0          
C4IA     C      0.751660000000     0.450228000000     0.562910000000     0          
C1IA     C      0.751660000000     0.395479000000     0.651990000000     0          
C5A      C      0.751660000000     0.500000000000     0.465820000000     0          
H2IA     H      0.751660000000     0.411477000000     0.540540000000     0          
C4A      C      0.751660000000     0.450228000000     0.437090000000     0          
C4Z      C      0.751660000000     0.549772000000     0.437090000000     0          
C2A      C      0.751660000000     0.450228000000     0.379620000000     0          
H2A      H      0.751660000000     0.411477000000     0.459460000000     0          
C2Z      C      0.751660000000     0.549772000000     0.379620000000     0          
H2Z      H      0.751660000000     0.588523000000     0.459460000000     0          
C3A      C      0.751660000000     0.500000000000     0.350880000000     0          
C1A      C      0.751660000000     0.395479000000     0.348010000000     0          
C1Z      C      0.751660000000     0.604521000000     0.348010000000     0          
H1A      H      0.751660000000     0.500000000000     0.306130000000     0          
O1A      O      0.768370000000     0.349000000000     0.376550000000     0          
O2A      O      0.733570000000     0.403560000000     0.294320000000     0          
O3Z      O      0.845080000000     0.289750000000     0.374400000000     0          
C7Y      C      0.049772000000     0.292080000000     0.620220000000     0          
C6Z      C      0.895479000000     0.292080000000     0.348170000000     0          
C9Y      C      0.049772000000     0.292080000000     0.562750000000     0          
C6Y      C      0.104521000000     0.292080000000     0.651830000000     0          
C10K     C      0.000000000000     0.292080000000     0.465990000000     0          
C7Z      C      0.950228000000     0.292080000000     0.379780000000     0          
H4Y      H      0.088523000000     0.292080000000     0.540370000000     0          
O3Y      O      0.154920000000     0.289750000000     0.625600000000     0          
C9Z      C      0.950228000000     0.292080000000     0.437250000000     0          
C9K      C      0.049772000000     0.292080000000     0.437250000000     0          
C8K      C      0.000000000000     0.292080000000     0.351050000000     0          
H4Z      H      0.911477000000     0.292080000000     0.459630000000     0          
C7K      C      0.049772000000     0.292080000000     0.379780000000     0          
H4K      H      0.088523000000     0.292080000000     0.459630000000     0          
H3K      H      0.000000000000     0.292080000000     0.306300000000     0          
C6K      C      0.104521000000     0.292080000000     0.348170000000     0          
O1       O      0.231630000000     0.349000000000     0.623450000000     0          
C1       C      0.248340000000     0.395479000000     0.651990000000     0          
O2       O      0.266430000000     0.403560000000     0.705680000000     0          
C2       C      0.248340000000     0.450228000000     0.620380000000     0          
C3       C      0.248340000000     0.500000000000     0.649120000000     0          
C4       C      0.248340000000     0.450228000000     0.562910000000     0          
H1       H      0.248340000000     0.500000000000     0.693870000000     0          
C5       C      0.248340000000     0.500000000000     0.534180000000     0          
H2       H      0.248340000000     0.411477000000     0.540540000000     0          
C6       C      0.104521000000     0.707920000000     0.651830000000     0          
C7       C      0.049772000000     0.707920000000     0.620220000000     0          
C8       C      0.000000000000     0.707920000000     0.648950000000     0          
C9       C      0.049772000000     0.707920000000     0.562750000000     0          
H3       H      0.000000000000     0.707920000000     0.693700000000     0          
C10      C      0.000000000000     0.707920000000     0.534010000000     0          
H4       H      0.088523000000     0.707920000000     0.540370000000     0          
C2IA     C      0.248340000000     0.549772000000     0.620380000000     0          
C4IA     C      0.248340000000     0.549772000000     0.562910000000     0          
C1IA     C      0.248340000000     0.604521000000     0.651990000000     0          
C5A      C      0.248340000000     0.500000000000     0.465820000000     0          
H2IA     H      0.248340000000     0.588523000000     0.540540000000     0          
C4A      C      0.248340000000     0.549772000000     0.437090000000     0          
C4Z      C      0.248340000000     0.450228000000     0.437090000000     0          
C2A      C      0.248340000000     0.549772000000     0.379620000000     0          
H2A      H      0.248340000000     0.588523000000     0.459460000000     0          
C2Z      C      0.248340000000     0.450228000000     0.379620000000     0          
H2Z      H      0.248340000000     0.411477000000     0.459460000000     0          
C3A      C      0.248340000000     0.500000000000     0.350880000000     0          
C1A      C      0.248340000000     0.604521000000     0.348010000000     0          
C1Z      C      0.248340000000     0.395479000000     0.348010000000     0          
H1A      H      0.248340000000     0.500000000000     0.306130000000     0          
O1A      O      0.231630000000     0.651000000000     0.376550000000     0          
O2A      O      0.266430000000     0.596440000000     0.294320000000     0          
O3Z      O      0.154920000000     0.710250000000     0.374400000000     0          
C7Y      C      0.950228000000     0.707920000000     0.620220000000     0          
C6Z      C      0.104521000000     0.707920000000     0.348170000000     0          
C9Y      C      0.950228000000     0.707920000000     0.562750000000     0          
C6Y      C      0.895479000000     0.707920000000     0.651830000000     0          
C10K     C      0.000000000000     0.707920000000     0.465990000000     0          
C7Z      C      0.049772000000     0.707920000000     0.379780000000     0          
H4Y      H      0.911477000000     0.707920000000     0.540370000000     0          
O3Y      O      0.845080000000     0.710250000000     0.625600000000     0          
C9Z      C      0.049772000000     0.707920000000     0.437250000000     0          
C9K      C      0.950228000000     0.707920000000     0.437250000000     0          
C8K      C      0.000000000000     0.707920000000     0.351050000000     0          
H4Z      H      0.088523000000     0.707920000000     0.459630000000     0          
C7K      C      0.950228000000     0.707920000000     0.379780000000     0          
H4K      H      0.911477000000     0.707920000000     0.459630000000     0          
H3K      H      0.000000000000     0.707920000000     0.306300000000     0          
C6K      C      0.895479000000     0.707920000000     0.348170000000     0          
C6       C      0.651830000000     0.895479000000     0.292080000000     0          
C7       C      0.620220000000     0.950228000000     0.292080000000     0          
C8       C      0.648950000000     0.000000000000     0.292080000000     0          
C9       C      0.562750000000     0.950228000000     0.292080000000     0          
H3       H      0.693700000000     0.000000000000     0.292080000000     0          
C10      C      0.534010000000     0.000000000000     0.292080000000     0          
H4       H      0.540370000000     0.911477000000     0.292080000000     0          
O3Z      O      0.374400000000     0.845080000000     0.289750000000     0          
C7Y      C      0.620220000000     0.049772000000     0.292080000000     0          
C6Z      C      0.348170000000     0.895479000000     0.292080000000     0          
C9Y      C      0.562750000000     0.049772000000     0.292080000000     0          
C6Y      C      0.651830000000     0.104521000000     0.292080000000     0          
C10K     C      0.465990000000     0.000000000000     0.292080000000     0          
C7Z      C      0.379780000000     0.950228000000     0.292080000000     0          
H4Y      H      0.540370000000     0.088523000000     0.292080000000     0          
O3Y      O      0.625600000000     0.154920000000     0.289750000000     0          
C9Z      C      0.437250000000     0.950228000000     0.292080000000     0          
C9K      C      0.437250000000     0.049772000000     0.292080000000     0          
C8K      C      0.351050000000     0.000000000000     0.292080000000     0          
H4Z      H      0.459630000000     0.911477000000     0.292080000000     0          
C7K      C      0.379780000000     0.049772000000     0.292080000000     0          
H4K      H      0.459630000000     0.088523000000     0.292080000000     0          
H3K      H      0.306300000000     0.000000000000     0.292080000000     0          
C6K      C      0.348170000000     0.104521000000     0.292080000000     0          
C6       C      0.651830000000     0.104521000000     0.707920000000     0          
C7       C      0.620220000000     0.049772000000     0.707920000000     0          
C8       C      0.648950000000     0.000000000000     0.707920000000     0          
C9       C      0.562750000000     0.049772000000     0.707920000000     0          
H3       H      0.693700000000     0.000000000000     0.707920000000     0          
C10      C      0.534010000000     0.000000000000     0.707920000000     0          
H4       H      0.540370000000     0.088523000000     0.707920000000     0          
O3Z      O      0.374400000000     0.154920000000     0.710250000000     0          
C7Y      C      0.620220000000     0.950228000000     0.707920000000     0          
C6Z      C      0.348170000000     0.104521000000     0.707920000000     0          
C9Y      C      0.562750000000     0.950228000000     0.707920000000     0          
C6Y      C      0.651830000000     0.895479000000     0.707920000000     0          
C10K     C      0.465990000000     0.000000000000     0.707920000000     0          
C7Z      C      0.379780000000     0.049772000000     0.707920000000     0          
H4Y      H      0.540370000000     0.911477000000     0.707920000000     0          
O3Y      O      0.625600000000     0.845080000000     0.710250000000     0          
C9Z      C      0.437250000000     0.049772000000     0.707920000000     0          
C9K      C      0.437250000000     0.950228000000     0.707920000000     0          
C8K      C      0.351050000000     0.000000000000     0.707920000000     0          
H4Z      H      0.459630000000     0.088523000000     0.707920000000     0          
C7K      C      0.379780000000     0.950228000000     0.707920000000     0          
H4K      H      0.459630000000     0.911477000000     0.707920000000     0          
H3K      H      0.306300000000     0.000000000000     0.707920000000     0          
C6K      C      0.348170000000     0.895479000000     0.707920000000     0          
O5       O      0.696330000000     0.303670000000     0.303670000000     0          
O5       O      0.303670000000     0.696330000000     0.303670000000     0          
O5       O      0.696330000000     0.696330000000     0.696330000000     0          
O5       O      0.303670000000     0.303670000000     0.696330000000     0          


