data_TIRCUV

_audit_creation_method RASPA-1.0
_audit_creation_date 2020-11-2
_audit_author_name 'Rocio Bueno-Perez'

_cell_length_a    39.254
_cell_length_b    39.254
_cell_length_c    16.542
_cell_angle_alpha 90
_cell_angle_beta  90
_cell_angle_gamma 120
_cell_volume      22074.3

_symmetry_cell_setting          triclinic
_symmetry_space_group_name_Hall 'P 1'
_symmetry_space_group_name_H-M  'P 1'
_symmetry_Int_Tables_number     1

_symmetry_equiv_pos_as_xyz 'x,y,z'

loop_
_atom_site_label
_atom_site_type_symbol
_atom_site_fract_x
_atom_site_fract_y
_atom_site_fract_z
_atom_site_charge
C1       C      0.094100000000     0.492100000000     0.133600000000     0          
C2       C      0.123700000000     0.490500000000     0.185500000000     0          
C3       C      0.113200000000     0.460000000000     0.242700000000     0          
H4       H      0.087220000000     0.440040000000     0.249360000000     0          
C5       C      0.143500000000     0.461300000000     0.288500000000     0          
H6       H      0.136900000000     0.441960000000     0.327670000000     0          
C7       C      0.182400000000     0.489000000000     0.279800000000     0          
C8       C      0.191800000000     0.518000000000     0.222400000000     0          
H9       H      0.217920000000     0.537320000000     0.214890000000     0          
C10      C      0.162500000000     0.518700000000     0.175900000000     0          
H11      H      0.169390000000     0.538440000000     0.137690000000     0          
C12      C      0.214700000000     0.488800000000     0.325400000000     0          
C13      C      0.213500000000     0.489000000000     0.409000000000     0          
C14      C      0.182500000000     0.493300000000     0.456500000000     0          
H15      H      0.163320000000     0.495920000000     0.428730000000     0          
O16      O      0.104700000000     0.518400000000     0.082000000000     0          
O17      O      0.057700000000     0.465400000000     0.150000000000     0          
C18      C      0.507900000000     0.602000000000     0.133600000000     0          
C19      C      0.509500000000     0.633200000000     0.185500000000     0          
C20      C      0.540000000000     0.653200000000     0.242700000000     0          
H21      H      0.559960000000     0.647180000000     0.249360000000     0          
C22      C      0.538700000000     0.682200000000     0.288500000000     0          
H23      H      0.558040000000     0.694940000000     0.327670000000     0          
C24      C      0.511000000000     0.693400000000     0.279800000000     0          
C25      C      0.482000000000     0.673800000000     0.222400000000     0          
H26      H      0.462680000000     0.680600000000     0.214890000000     0          
C27      C      0.481300000000     0.643800000000     0.175900000000     0          
H28      H      0.461560000000     0.630950000000     0.137690000000     0          
C29      C      0.511200000000     0.725900000000     0.325400000000     0          
C30      C      0.511000000000     0.724500000000     0.409000000000     0          
C31      C      0.506700000000     0.689200000000     0.456500000000     0          
H32      H      0.504080000000     0.667400000000     0.428730000000     0          
O33      O      0.481600000000     0.586300000000     0.082000000000     0          
O34      O      0.534600000000     0.592300000000     0.150000000000     0          
C35      C      0.398000000000     0.905900000000     0.133600000000     0          
C36      C      0.366800000000     0.876300000000     0.185500000000     0          
C37      C      0.346800000000     0.886800000000     0.242700000000     0          
H38      H      0.352820000000     0.912780000000     0.249360000000     0          
C39      C      0.317800000000     0.856500000000     0.288500000000     0          
H40      H      0.305060000000     0.863100000000     0.327670000000     0          
C41      C      0.306600000000     0.817600000000     0.279800000000     0          
C42      C      0.326200000000     0.808200000000     0.222400000000     0          
H43      H      0.319400000000     0.782080000000     0.214890000000     0          
C44      C      0.356200000000     0.837500000000     0.175900000000     0          
H45      H      0.369050000000     0.830610000000     0.137690000000     0          
C46      C      0.274100000000     0.785300000000     0.325400000000     0          
C47      C      0.275500000000     0.786500000000     0.409000000000     0          
C48      C      0.310800000000     0.817500000000     0.456500000000     0          
H49      H      0.332600000000     0.836680000000     0.428730000000     0          
O50      O      0.413700000000     0.895300000000     0.082000000000     0          
O51      O      0.407700000000     0.942300000000     0.150000000000     0          
C52      C      0.905900000000     0.507900000000     0.133600000000     0          
C53      C      0.876300000000     0.509500000000     0.185500000000     0          
C54      C      0.886800000000     0.540000000000     0.242700000000     0          
H55      H      0.912780000000     0.559960000000     0.249360000000     0          
C56      C      0.856500000000     0.538700000000     0.288500000000     0          
H57      H      0.863100000000     0.558040000000     0.327670000000     0          
C58      C      0.817600000000     0.511000000000     0.279800000000     0          
C59      C      0.808200000000     0.482000000000     0.222400000000     0          
H60      H      0.782080000000     0.462680000000     0.214890000000     0          
C61      C      0.837500000000     0.481300000000     0.175900000000     0          
H62      H      0.830610000000     0.461560000000     0.137690000000     0          
C63      C      0.785300000000     0.511200000000     0.325400000000     0          
C64      C      0.786500000000     0.511000000000     0.409000000000     0          
C65      C      0.817500000000     0.506700000000     0.456500000000     0          
H66      H      0.836680000000     0.504080000000     0.428730000000     0          
O67      O      0.895300000000     0.481600000000     0.082000000000     0          
O68      O      0.942300000000     0.534600000000     0.150000000000     0          
C69      C      0.492100000000     0.398000000000     0.133600000000     0          
C70      C      0.490500000000     0.366800000000     0.185500000000     0          
C71      C      0.460000000000     0.346800000000     0.242700000000     0          
H72      H      0.440040000000     0.352820000000     0.249360000000     0          
C73      C      0.461300000000     0.317800000000     0.288500000000     0          
H74      H      0.441960000000     0.305060000000     0.327670000000     0          
C75      C      0.489000000000     0.306600000000     0.279800000000     0          
C76      C      0.518000000000     0.326200000000     0.222400000000     0          
H77      H      0.537320000000     0.319400000000     0.214890000000     0          
C78      C      0.518700000000     0.356200000000     0.175900000000     0          
H79      H      0.538440000000     0.369050000000     0.137690000000     0          
C80      C      0.488800000000     0.274100000000     0.325400000000     0          
C81      C      0.489000000000     0.275500000000     0.409000000000     0          
C82      C      0.493300000000     0.310800000000     0.456500000000     0          
H83      H      0.495920000000     0.332600000000     0.428730000000     0          
O84      O      0.518400000000     0.413700000000     0.082000000000     0          
O85      O      0.465400000000     0.407700000000     0.150000000000     0          
C86      C      0.602000000000     0.094100000000     0.133600000000     0          
C87      C      0.633200000000     0.123700000000     0.185500000000     0          
C88      C      0.653200000000     0.113200000000     0.242700000000     0          
H89      H      0.647180000000     0.087220000000     0.249360000000     0          
C90      C      0.682200000000     0.143500000000     0.288500000000     0          
H91      H      0.694940000000     0.136900000000     0.327670000000     0          
C92      C      0.693400000000     0.182400000000     0.279800000000     0          
C93      C      0.673800000000     0.191800000000     0.222400000000     0          
H94      H      0.680600000000     0.217920000000     0.214890000000     0          
C95      C      0.643800000000     0.162500000000     0.175900000000     0          
H96      H      0.630950000000     0.169390000000     0.137690000000     0          
C97      C      0.725900000000     0.214700000000     0.325400000000     0          
C98      C      0.724500000000     0.213500000000     0.409000000000     0          
C99      C      0.689200000000     0.182500000000     0.456500000000     0          
H100     H      0.667400000000     0.163320000000     0.428730000000     0          
O101     O      0.586300000000     0.104700000000     0.082000000000     0          
O102     O      0.592300000000     0.057700000000     0.150000000000     0          
C103     C      0.492100000000     0.094100000000     0.866400000000     0          
C104     C      0.490500000000     0.123700000000     0.814500000000     0          
C105     C      0.460000000000     0.113200000000     0.757300000000     0          
H106     H      0.440040000000     0.087220000000     0.750640000000     0          
C107     C      0.461300000000     0.143500000000     0.711500000000     0          
H108     H      0.441960000000     0.136900000000     0.672330000000     0          
C109     C      0.489000000000     0.182400000000     0.720200000000     0          
C110     C      0.518000000000     0.191800000000     0.777600000000     0          
H111     H      0.537320000000     0.217920000000     0.785110000000     0          
C112     C      0.518700000000     0.162500000000     0.824100000000     0          
H113     H      0.538440000000     0.169390000000     0.862310000000     0          
C114     C      0.488800000000     0.214700000000     0.674600000000     0          
C115     C      0.489000000000     0.213500000000     0.591000000000     0          
C116     C      0.493300000000     0.182500000000     0.543500000000     0          
H117     H      0.495920000000     0.163320000000     0.571270000000     0          
O118     O      0.518400000000     0.104700000000     0.918000000000     0          
O119     O      0.465400000000     0.057700000000     0.850000000000     0          
C120     C      0.602000000000     0.507900000000     0.866400000000     0          
C121     C      0.633200000000     0.509500000000     0.814500000000     0          
C122     C      0.653200000000     0.540000000000     0.757300000000     0          
H123     H      0.647180000000     0.559960000000     0.750640000000     0          
C124     C      0.682200000000     0.538700000000     0.711500000000     0          
H125     H      0.694940000000     0.558040000000     0.672330000000     0          
C126     C      0.693400000000     0.511000000000     0.720200000000     0          
C127     C      0.673800000000     0.482000000000     0.777600000000     0          
H128     H      0.680600000000     0.462680000000     0.785110000000     0          
C129     C      0.643800000000     0.481300000000     0.824100000000     0          
H130     H      0.630950000000     0.461560000000     0.862310000000     0          
C131     C      0.725900000000     0.511200000000     0.674600000000     0          
C132     C      0.724500000000     0.511000000000     0.591000000000     0          
C133     C      0.689200000000     0.506700000000     0.543500000000     0          
H134     H      0.667400000000     0.504080000000     0.571270000000     0          
O135     O      0.586300000000     0.481600000000     0.918000000000     0          
O136     O      0.592300000000     0.534600000000     0.850000000000     0          
C137     C      0.905900000000     0.398000000000     0.866400000000     0          
C138     C      0.876300000000     0.366800000000     0.814500000000     0          
C139     C      0.886800000000     0.346800000000     0.757300000000     0          
H140     H      0.912780000000     0.352820000000     0.750640000000     0          
C141     C      0.856500000000     0.317800000000     0.711500000000     0          
H142     H      0.863100000000     0.305060000000     0.672330000000     0          
C143     C      0.817600000000     0.306600000000     0.720200000000     0          
C144     C      0.808200000000     0.326200000000     0.777600000000     0          
H145     H      0.782080000000     0.319400000000     0.785110000000     0          
C146     C      0.837500000000     0.356200000000     0.824100000000     0          
H147     H      0.830610000000     0.369050000000     0.862310000000     0          
C148     C      0.785300000000     0.274100000000     0.674600000000     0          
C149     C      0.786500000000     0.275500000000     0.591000000000     0          
C150     C      0.817500000000     0.310800000000     0.543500000000     0          
H151     H      0.836680000000     0.332600000000     0.571270000000     0          
O152     O      0.895300000000     0.413700000000     0.918000000000     0          
O153     O      0.942300000000     0.407700000000     0.850000000000     0          
C154     C      0.507900000000     0.905900000000     0.866400000000     0          
C155     C      0.509500000000     0.876300000000     0.814500000000     0          
C156     C      0.540000000000     0.886800000000     0.757300000000     0          
H157     H      0.559960000000     0.912780000000     0.750640000000     0          
C158     C      0.538700000000     0.856500000000     0.711500000000     0          
H159     H      0.558040000000     0.863100000000     0.672330000000     0          
C160     C      0.511000000000     0.817600000000     0.720200000000     0          
C161     C      0.482000000000     0.808200000000     0.777600000000     0          
H162     H      0.462680000000     0.782080000000     0.785110000000     0          
C163     C      0.481300000000     0.837500000000     0.824100000000     0          
H164     H      0.461560000000     0.830610000000     0.862310000000     0          
C165     C      0.511200000000     0.785300000000     0.674600000000     0          
C166     C      0.511000000000     0.786500000000     0.591000000000     0          
C167     C      0.506700000000     0.817500000000     0.543500000000     0          
H168     H      0.504080000000     0.836680000000     0.571270000000     0          
O169     O      0.481600000000     0.895300000000     0.918000000000     0          
O170     O      0.534600000000     0.942300000000     0.850000000000     0          
C171     C      0.398000000000     0.492100000000     0.866400000000     0          
C172     C      0.366800000000     0.490500000000     0.814500000000     0          
C173     C      0.346800000000     0.460000000000     0.757300000000     0          
H174     H      0.352820000000     0.440040000000     0.750640000000     0          
C175     C      0.317800000000     0.461300000000     0.711500000000     0          
H176     H      0.305060000000     0.441960000000     0.672330000000     0          
C177     C      0.306600000000     0.489000000000     0.720200000000     0          
C178     C      0.326200000000     0.518000000000     0.777600000000     0          
H179     H      0.319400000000     0.537320000000     0.785110000000     0          
C180     C      0.356200000000     0.518700000000     0.824100000000     0          
H181     H      0.369050000000     0.538440000000     0.862310000000     0          
C182     C      0.274100000000     0.488800000000     0.674600000000     0          
C183     C      0.275500000000     0.489000000000     0.591000000000     0          
C184     C      0.310800000000     0.493300000000     0.543500000000     0          
H185     H      0.332600000000     0.495920000000     0.571270000000     0          
O186     O      0.413700000000     0.518400000000     0.918000000000     0          
O187     O      0.407700000000     0.465400000000     0.850000000000     0          
C188     C      0.094100000000     0.602000000000     0.866400000000     0          
C189     C      0.123700000000     0.633200000000     0.814500000000     0          
C190     C      0.113200000000     0.653200000000     0.757300000000     0          
H191     H      0.087220000000     0.647180000000     0.750640000000     0          
C192     C      0.143500000000     0.682200000000     0.711500000000     0          
H193     H      0.136900000000     0.694940000000     0.672330000000     0          
C194     C      0.182400000000     0.693400000000     0.720200000000     0          
C195     C      0.191800000000     0.673800000000     0.777600000000     0          
H196     H      0.217920000000     0.680600000000     0.785110000000     0          
C197     C      0.162500000000     0.643800000000     0.824100000000     0          
H198     H      0.169390000000     0.630950000000     0.862310000000     0          
C199     C      0.214700000000     0.725900000000     0.674600000000     0          
C200     C      0.213500000000     0.724500000000     0.591000000000     0          
C201     C      0.182500000000     0.689200000000     0.543500000000     0          
H202     H      0.163320000000     0.667400000000     0.571270000000     0          
O203     O      0.104700000000     0.586300000000     0.918000000000     0          
O204     O      0.057700000000     0.592300000000     0.850000000000     0          
C205     C      0.905900000000     0.507900000000     0.866400000000     0          
C206     C      0.876300000000     0.509500000000     0.814500000000     0          
C207     C      0.886800000000     0.540000000000     0.757300000000     0          
H208     H      0.912780000000     0.559960000000     0.750640000000     0          
C209     C      0.856500000000     0.538700000000     0.711500000000     0          
H210     H      0.863100000000     0.558040000000     0.672330000000     0          
C211     C      0.817600000000     0.511000000000     0.720200000000     0          
C212     C      0.808200000000     0.482000000000     0.777600000000     0          
H213     H      0.782080000000     0.462680000000     0.785110000000     0          
C214     C      0.837500000000     0.481300000000     0.824100000000     0          
H215     H      0.830610000000     0.461560000000     0.862310000000     0          
C216     C      0.785300000000     0.511200000000     0.674600000000     0          
C217     C      0.786500000000     0.511000000000     0.591000000000     0          
C218     C      0.817500000000     0.506700000000     0.543500000000     0          
H219     H      0.836680000000     0.504080000000     0.571270000000     0          
O220     O      0.895300000000     0.481600000000     0.918000000000     0          
O221     O      0.942300000000     0.534600000000     0.850000000000     0          
C222     C      0.492100000000     0.398000000000     0.866400000000     0          
C223     C      0.490500000000     0.366800000000     0.814500000000     0          
C224     C      0.460000000000     0.346800000000     0.757300000000     0          
H225     H      0.440040000000     0.352820000000     0.750640000000     0          
C226     C      0.461300000000     0.317800000000     0.711500000000     0          
H227     H      0.441960000000     0.305060000000     0.672330000000     0          
C228     C      0.489000000000     0.306600000000     0.720200000000     0          
C229     C      0.518000000000     0.326200000000     0.777600000000     0          
H230     H      0.537320000000     0.319400000000     0.785110000000     0          
C231     C      0.518700000000     0.356200000000     0.824100000000     0          
H232     H      0.538440000000     0.369050000000     0.862310000000     0          
C233     C      0.488800000000     0.274100000000     0.674600000000     0          
C234     C      0.489000000000     0.275500000000     0.591000000000     0          
C235     C      0.493300000000     0.310800000000     0.543500000000     0          
H236     H      0.495920000000     0.332600000000     0.571270000000     0          
O237     O      0.518400000000     0.413700000000     0.918000000000     0          
O238     O      0.465400000000     0.407700000000     0.850000000000     0          
C239     C      0.602000000000     0.094100000000     0.866400000000     0          
C240     C      0.633200000000     0.123700000000     0.814500000000     0          
C241     C      0.653200000000     0.113200000000     0.757300000000     0          
H242     H      0.647180000000     0.087220000000     0.750640000000     0          
C243     C      0.682200000000     0.143500000000     0.711500000000     0          
H244     H      0.694940000000     0.136900000000     0.672330000000     0          
C245     C      0.693400000000     0.182400000000     0.720200000000     0          
C246     C      0.673800000000     0.191800000000     0.777600000000     0          
H247     H      0.680600000000     0.217920000000     0.785110000000     0          
C248     C      0.643800000000     0.162500000000     0.824100000000     0          
H249     H      0.630950000000     0.169390000000     0.862310000000     0          
C250     C      0.725900000000     0.214700000000     0.674600000000     0          
C251     C      0.724500000000     0.213500000000     0.591000000000     0          
C252     C      0.689200000000     0.182500000000     0.543500000000     0          
H253     H      0.667400000000     0.163320000000     0.571270000000     0          
O254     O      0.586300000000     0.104700000000     0.918000000000     0          
O255     O      0.592300000000     0.057700000000     0.850000000000     0          
C256     C      0.094100000000     0.492100000000     0.866400000000     0          
C257     C      0.123700000000     0.490500000000     0.814500000000     0          
C258     C      0.113200000000     0.460000000000     0.757300000000     0          
H259     H      0.087220000000     0.440040000000     0.750640000000     0          
C260     C      0.143500000000     0.461300000000     0.711500000000     0          
H261     H      0.136900000000     0.441960000000     0.672330000000     0          
C262     C      0.182400000000     0.489000000000     0.720200000000     0          
C263     C      0.191800000000     0.518000000000     0.777600000000     0          
H264     H      0.217920000000     0.537320000000     0.785110000000     0          
C265     C      0.162500000000     0.518700000000     0.824100000000     0          
H266     H      0.169390000000     0.538440000000     0.862310000000     0          
C267     C      0.214700000000     0.488800000000     0.674600000000     0          
C268     C      0.213500000000     0.489000000000     0.591000000000     0          
C269     C      0.182500000000     0.493300000000     0.543500000000     0          
H270     H      0.163320000000     0.495920000000     0.571270000000     0          
O271     O      0.104700000000     0.518400000000     0.918000000000     0          
O272     O      0.057700000000     0.465400000000     0.850000000000     0          
C273     C      0.507900000000     0.602000000000     0.866400000000     0          
C274     C      0.509500000000     0.633200000000     0.814500000000     0          
C275     C      0.540000000000     0.653200000000     0.757300000000     0          
H276     H      0.559960000000     0.647180000000     0.750640000000     0          
C277     C      0.538700000000     0.682200000000     0.711500000000     0          
H278     H      0.558040000000     0.694940000000     0.672330000000     0          
C279     C      0.511000000000     0.693400000000     0.720200000000     0          
C280     C      0.482000000000     0.673800000000     0.777600000000     0          
H281     H      0.462680000000     0.680600000000     0.785110000000     0          
C282     C      0.481300000000     0.643800000000     0.824100000000     0          
H283     H      0.461560000000     0.630950000000     0.862310000000     0          
C284     C      0.511200000000     0.725900000000     0.674600000000     0          
C285     C      0.511000000000     0.724500000000     0.591000000000     0          
C286     C      0.506700000000     0.689200000000     0.543500000000     0          
H287     H      0.504080000000     0.667400000000     0.571270000000     0          
O288     O      0.481600000000     0.586300000000     0.918000000000     0          
O289     O      0.534600000000     0.592300000000     0.850000000000     0          
C290     C      0.398000000000     0.905900000000     0.866400000000     0          
C291     C      0.366800000000     0.876300000000     0.814500000000     0          
C292     C      0.346800000000     0.886800000000     0.757300000000     0          
H293     H      0.352820000000     0.912780000000     0.750640000000     0          
C294     C      0.317800000000     0.856500000000     0.711500000000     0          
H295     H      0.305060000000     0.863100000000     0.672330000000     0          
C296     C      0.306600000000     0.817600000000     0.720200000000     0          
C297     C      0.326200000000     0.808200000000     0.777600000000     0          
H298     H      0.319400000000     0.782080000000     0.785110000000     0          
C299     C      0.356200000000     0.837500000000     0.824100000000     0          
H300     H      0.369050000000     0.830610000000     0.862310000000     0          
C301     C      0.274100000000     0.785300000000     0.674600000000     0          
C302     C      0.275500000000     0.786500000000     0.591000000000     0          
C303     C      0.310800000000     0.817500000000     0.543500000000     0          
H304     H      0.332600000000     0.836680000000     0.571270000000     0          
O305     O      0.413700000000     0.895300000000     0.918000000000     0          
O306     O      0.407700000000     0.942300000000     0.850000000000     0          
C307     C      0.507900000000     0.905900000000     0.133600000000     0          
C308     C      0.509500000000     0.876300000000     0.185500000000     0          
C309     C      0.540000000000     0.886800000000     0.242700000000     0          
H310     H      0.559960000000     0.912780000000     0.249360000000     0          
C311     C      0.538700000000     0.856500000000     0.288500000000     0          
H312     H      0.558040000000     0.863100000000     0.327670000000     0          
C313     C      0.511000000000     0.817600000000     0.279800000000     0          
C314     C      0.482000000000     0.808200000000     0.222400000000     0          
H315     H      0.462680000000     0.782080000000     0.214890000000     0          
C316     C      0.481300000000     0.837500000000     0.175900000000     0          
H317     H      0.461560000000     0.830610000000     0.137690000000     0          
C318     C      0.511200000000     0.785300000000     0.325400000000     0          
C319     C      0.511000000000     0.786500000000     0.409000000000     0          
C320     C      0.506700000000     0.817500000000     0.456500000000     0          
H321     H      0.504080000000     0.836680000000     0.428730000000     0          
O322     O      0.481600000000     0.895300000000     0.082000000000     0          
O323     O      0.534600000000     0.942300000000     0.150000000000     0          
C324     C      0.398000000000     0.492100000000     0.133600000000     0          
C325     C      0.366800000000     0.490500000000     0.185500000000     0          
C326     C      0.346800000000     0.460000000000     0.242700000000     0          
H327     H      0.352820000000     0.440040000000     0.249360000000     0          
C328     C      0.317800000000     0.461300000000     0.288500000000     0          
H329     H      0.305060000000     0.441960000000     0.327670000000     0          
C330     C      0.306600000000     0.489000000000     0.279800000000     0          
C331     C      0.326200000000     0.518000000000     0.222400000000     0          
H332     H      0.319400000000     0.537320000000     0.214890000000     0          
C333     C      0.356200000000     0.518700000000     0.175900000000     0          
H334     H      0.369050000000     0.538440000000     0.137690000000     0          
C335     C      0.274100000000     0.488800000000     0.325400000000     0          
C336     C      0.275500000000     0.489000000000     0.409000000000     0          
C337     C      0.310800000000     0.493300000000     0.456500000000     0          
H338     H      0.332600000000     0.495920000000     0.428730000000     0          
O339     O      0.413700000000     0.518400000000     0.082000000000     0          
O340     O      0.407700000000     0.465400000000     0.150000000000     0          
C341     C      0.094100000000     0.602000000000     0.133600000000     0          
C342     C      0.123700000000     0.633200000000     0.185500000000     0          
C343     C      0.113200000000     0.653200000000     0.242700000000     0          
H344     H      0.087220000000     0.647180000000     0.249360000000     0          
C345     C      0.143500000000     0.682200000000     0.288500000000     0          
H346     H      0.136900000000     0.694940000000     0.327670000000     0          
C347     C      0.182400000000     0.693400000000     0.279800000000     0          
C348     C      0.191800000000     0.673800000000     0.222400000000     0          
H349     H      0.217920000000     0.680600000000     0.214890000000     0          
C350     C      0.162500000000     0.643800000000     0.175900000000     0          
H351     H      0.169390000000     0.630950000000     0.137690000000     0          
C352     C      0.214700000000     0.725900000000     0.325400000000     0          
C353     C      0.213500000000     0.724500000000     0.409000000000     0          
C354     C      0.182500000000     0.689200000000     0.456500000000     0          
H355     H      0.163320000000     0.667400000000     0.428730000000     0          
O356     O      0.104700000000     0.586300000000     0.082000000000     0          
O357     O      0.057700000000     0.592300000000     0.150000000000     0          
C358     C      0.492100000000     0.094100000000     0.133600000000     0          
C359     C      0.490500000000     0.123700000000     0.185500000000     0          
C360     C      0.460000000000     0.113200000000     0.242700000000     0          
H361     H      0.440040000000     0.087220000000     0.249360000000     0          
C362     C      0.461300000000     0.143500000000     0.288500000000     0          
H363     H      0.441960000000     0.136900000000     0.327670000000     0          
C364     C      0.489000000000     0.182400000000     0.279800000000     0          
C365     C      0.518000000000     0.191800000000     0.222400000000     0          
H366     H      0.537320000000     0.217920000000     0.214890000000     0          
C367     C      0.518700000000     0.162500000000     0.175900000000     0          
H368     H      0.538440000000     0.169390000000     0.137690000000     0          
C369     C      0.488800000000     0.214700000000     0.325400000000     0          
C370     C      0.489000000000     0.213500000000     0.409000000000     0          
C371     C      0.493300000000     0.182500000000     0.456500000000     0          
H372     H      0.495920000000     0.163320000000     0.428730000000     0          
O373     O      0.518400000000     0.104700000000     0.082000000000     0          
O374     O      0.465400000000     0.057700000000     0.150000000000     0          
C375     C      0.602000000000     0.507900000000     0.133600000000     0          
C376     C      0.633200000000     0.509500000000     0.185500000000     0          
C377     C      0.653200000000     0.540000000000     0.242700000000     0          
H378     H      0.647180000000     0.559960000000     0.249360000000     0          
C379     C      0.682200000000     0.538700000000     0.288500000000     0          
H380     H      0.694940000000     0.558040000000     0.327670000000     0          
C381     C      0.693400000000     0.511000000000     0.279800000000     0          
C382     C      0.673800000000     0.482000000000     0.222400000000     0          
H383     H      0.680600000000     0.462680000000     0.214890000000     0          
C384     C      0.643800000000     0.481300000000     0.175900000000     0          
H385     H      0.630950000000     0.461560000000     0.137690000000     0          
C386     C      0.725900000000     0.511200000000     0.325400000000     0          
C387     C      0.724500000000     0.511000000000     0.409000000000     0          
C388     C      0.689200000000     0.506700000000     0.456500000000     0          
H389     H      0.667400000000     0.504080000000     0.428730000000     0          
O390     O      0.586300000000     0.481600000000     0.082000000000     0          
O391     O      0.592300000000     0.534600000000     0.150000000000     0          
C392     C      0.905900000000     0.398000000000     0.133600000000     0          
C393     C      0.876300000000     0.366800000000     0.185500000000     0          
C394     C      0.886800000000     0.346800000000     0.242700000000     0          
H395     H      0.912780000000     0.352820000000     0.249360000000     0          
C396     C      0.856500000000     0.317800000000     0.288500000000     0          
H397     H      0.863100000000     0.305060000000     0.327670000000     0          
C398     C      0.817600000000     0.306600000000     0.279800000000     0          
C399     C      0.808200000000     0.326200000000     0.222400000000     0          
H400     H      0.782080000000     0.319400000000     0.214890000000     0          
C401     C      0.837500000000     0.356200000000     0.175900000000     0          
H402     H      0.830610000000     0.369050000000     0.137690000000     0          
C403     C      0.785300000000     0.274100000000     0.325400000000     0          
C404     C      0.786500000000     0.275500000000     0.409000000000     0          
C405     C      0.817500000000     0.310800000000     0.456500000000     0          
H406     H      0.836680000000     0.332600000000     0.428730000000     0          
O407     O      0.895300000000     0.413700000000     0.082000000000     0          
O408     O      0.942300000000     0.407700000000     0.150000000000     0          
C409     C      0.244500000000     0.489000000000     0.289300000000     0          
H410     H      0.244660000000     0.489330000000     0.233050000000     0          
C411     C      0.244000000000     0.488000000000     0.453200000000     0          
C412     C      0.511000000000     0.755500000000     0.289300000000     0          
H413     H      0.510670000000     0.755340000000     0.233050000000     0          
C414     C      0.512000000000     0.756000000000     0.453200000000     0          
C415     C      0.244500000000     0.755500000000     0.289300000000     0          
H416     H      0.244660000000     0.755340000000     0.233050000000     0          
C417     C      0.244000000000     0.756000000000     0.453200000000     0          
C418     C      0.755500000000     0.511000000000     0.289300000000     0          
H419     H      0.755340000000     0.510670000000     0.233050000000     0          
C420     C      0.756000000000     0.512000000000     0.453200000000     0          
C421     C      0.489000000000     0.244500000000     0.289300000000     0          
H422     H      0.489330000000     0.244660000000     0.233050000000     0          
C423     C      0.488000000000     0.244000000000     0.453200000000     0          
C424     C      0.755500000000     0.244500000000     0.289300000000     0          
H425     H      0.755340000000     0.244660000000     0.233050000000     0          
C426     C      0.756000000000     0.244000000000     0.453200000000     0          
C427     C      0.489000000000     0.244500000000     0.710700000000     0          
H428     H      0.489330000000     0.244660000000     0.766950000000     0          
C429     C      0.488000000000     0.244000000000     0.546800000000     0          
C430     C      0.755500000000     0.511000000000     0.710700000000     0          
H431     H      0.755340000000     0.510670000000     0.766950000000     0          
C432     C      0.756000000000     0.512000000000     0.546800000000     0          
C433     C      0.755500000000     0.244500000000     0.710700000000     0          
H434     H      0.755340000000     0.244660000000     0.766950000000     0          
C435     C      0.756000000000     0.244000000000     0.546800000000     0          
C436     C      0.511000000000     0.755500000000     0.710700000000     0          
H437     H      0.510670000000     0.755340000000     0.766950000000     0          
C438     C      0.512000000000     0.756000000000     0.546800000000     0          
C439     C      0.244500000000     0.489000000000     0.710700000000     0          
H440     H      0.244660000000     0.489330000000     0.766950000000     0          
C441     C      0.244000000000     0.488000000000     0.546800000000     0          
C442     C      0.244500000000     0.755500000000     0.710700000000     0          
H443     H      0.244660000000     0.755340000000     0.766950000000     0          
C444     C      0.244000000000     0.756000000000     0.546800000000     0          
O445     O      0.034800000000     0.517400000000     0.109700000000     0          
S446     S      0.913000000000     0.456500000000     0.332000000000     0          
Mo447    Mo     0.975500000000     0.487750000000     0.251000000000     0          
O448     O      0.482600000000     0.517400000000     0.109700000000     0          
S449     S      0.543500000000     0.456500000000     0.332000000000     0          
Mo450    Mo     0.512250000000     0.487750000000     0.251000000000     0          
O451     O      0.482600000000     0.965200000000     0.109700000000     0          
S452     S      0.543500000000     0.087000000000     0.332000000000     0          
Mo453    Mo     0.512250000000     0.024500000000     0.251000000000     0          
O454     O      0.965200000000     0.482600000000     0.109700000000     0          
O455     O      0.517400000000     0.482600000000     0.109700000000     0          
O456     O      0.517400000000     0.034800000000     0.109700000000     0          
O457     O      0.517400000000     0.034800000000     0.890300000000     0          
S458     S      0.456500000000     0.913000000000     0.668000000000     0          
Mo459    Mo     0.487750000000     0.975500000000     0.749000000000     0          
O460     O      0.517400000000     0.482600000000     0.890300000000     0          
S461     S      0.456500000000     0.543500000000     0.668000000000     0          
Mo462    Mo     0.487750000000     0.512250000000     0.749000000000     0          
O463     O      0.965200000000     0.482600000000     0.890300000000     0          
S464     S      0.087000000000     0.543500000000     0.668000000000     0          
Mo465    Mo     0.024500000000     0.512250000000     0.749000000000     0          
O466     O      0.482600000000     0.965200000000     0.890300000000     0          
O467     O      0.482600000000     0.517400000000     0.890300000000     0          
O468     O      0.034800000000     0.517400000000     0.890300000000     0          
O469     O      0.036400000000     0.473200000000     0.000000000000     0          
S470     S      0.966000000000     0.331000000000     0.000000000000     0          
O471     O      0.526800000000     0.563200000000     0.000000000000     0          
S472     S      0.669000000000     0.635000000000     0.000000000000     0          
O473     O      0.436800000000     0.963600000000     0.000000000000     0          
S474     S      0.365000000000     0.034000000000     0.000000000000     0          
O475     O      0.963600000000     0.526800000000     0.000000000000     0          
S476     S      0.034000000000     0.669000000000     0.000000000000     0          
O477     O      0.473200000000     0.436800000000     0.000000000000     0          
Mo478    Mo     0.384300000000     0.419800000000     0.000000000000     0          
S479     S      0.331000000000     0.365000000000     0.000000000000     0          
O480     O      0.563200000000     0.036400000000     0.000000000000     0          
S481     S      0.635000000000     0.966000000000     0.000000000000     0          
O482     O      0.473200000000     0.036400000000     0.000000000000     0          
S483     S      0.331000000000     0.966000000000     0.000000000000     0          
O484     O      0.563200000000     0.526800000000     0.000000000000     0          
S485     S      0.635000000000     0.669000000000     0.000000000000     0          
O486     O      0.963600000000     0.436800000000     0.000000000000     0          
S487     S      0.034000000000     0.365000000000     0.000000000000     0          
O488     O      0.526800000000     0.963600000000     0.000000000000     0          
S489     S      0.669000000000     0.034000000000     0.000000000000     0          
O490     O      0.436800000000     0.473200000000     0.000000000000     0          
O491     O      0.036400000000     0.563200000000     0.000000000000     0          
S492     S      0.966000000000     0.635000000000     0.000000000000     0          
O493     O      0.000000000000     0.400600000000     0.073700000000     0          
O494     O      0.000000000000     0.468000000000     0.237600000000     0          
Zr495    Zr     0.000000000000     0.454910000000     0.106670000000     0          
O496     O      0.532000000000     0.532000000000     0.237600000000     0          
Zr497    Zr     0.545090000000     0.545090000000     0.106670000000     0          
O498     O      0.600900000000     0.600900000000     0.120000000000     0          
O499     O      0.400600000000     0.000000000000     0.073700000000     0          
O500     O      0.468000000000     0.000000000000     0.237600000000     0          
Zr501    Zr     0.454910000000     0.000000000000     0.106670000000     0          
O502     O      0.000000000000     0.599400000000     0.073700000000     0          
O503     O      0.000000000000     0.532000000000     0.237600000000     0          
Zr504    Zr     0.000000000000     0.545090000000     0.106670000000     0          
O505     O      0.400600000000     0.400600000000     0.073700000000     0          
O506     O      0.468000000000     0.468000000000     0.237600000000     0          
Zr507    Zr     0.454910000000     0.454910000000     0.106670000000     0          
O508     O      0.599400000000     0.000000000000     0.073700000000     0          
O509     O      0.532000000000     0.000000000000     0.237600000000     0          
Zr510    Zr     0.545090000000     0.000000000000     0.106670000000     0          
O511     O      0.400600000000     0.000000000000     0.926300000000     0          
O512     O      0.468000000000     0.000000000000     0.762400000000     0          
Zr513    Zr     0.454910000000     0.000000000000     0.893330000000     0          
O514     O      0.599400000000     0.599400000000     0.926300000000     0          
O515     O      0.532000000000     0.532000000000     0.762400000000     0          
Zr516    Zr     0.545090000000     0.545090000000     0.893330000000     0          
O517     O      0.000000000000     0.400600000000     0.926300000000     0          
O518     O      0.000000000000     0.468000000000     0.762400000000     0          
Zr519    Zr     0.000000000000     0.454910000000     0.893330000000     0          
O520     O      0.599400000000     0.000000000000     0.926300000000     0          
O521     O      0.532000000000     0.000000000000     0.762400000000     0          
Zr522    Zr     0.545090000000     0.000000000000     0.893330000000     0          
O523     O      0.400600000000     0.400600000000     0.926300000000     0          
O524     O      0.468000000000     0.468000000000     0.762400000000     0          
Zr525    Zr     0.454910000000     0.454910000000     0.893330000000     0          
O526     O      0.000000000000     0.599400000000     0.926300000000     0          
O527     O      0.000000000000     0.532000000000     0.762400000000     0          
Zr528    Zr     0.000000000000     0.545090000000     0.893330000000     0          
Zr529    Zr     0.072960000000     0.536480000000     0.000000000000     0          
Zr530    Zr     0.463520000000     0.536480000000     0.000000000000     0          
Zr531    Zr     0.463520000000     0.927040000000     0.000000000000     0          
Zr532    Zr     0.927040000000     0.463520000000     0.000000000000     0          
Zr533    Zr     0.536480000000     0.463520000000     0.000000000000     0          
Zr534    Zr     0.536480000000     0.072960000000     0.000000000000     0          
Mo535    Mo     0.000000000000     0.387600000000     0.000000000000     0          
Mo536    Mo     0.612400000000     0.612400000000     0.000000000000     0          
Mo537    Mo     0.387600000000     0.000000000000     0.000000000000     0          
Mo538    Mo     0.000000000000     0.612400000000     0.000000000000     0          
S539     S      0.342000000000     0.342000000000     0.000000000000     0          
Mo540    Mo     0.612400000000     0.000000000000     0.000000000000     0          
S541     S      0.000000000000     0.500000000000     0.382000000000     0          
S542     S      0.500000000000     0.500000000000     0.382000000000     0          
S543     S      0.500000000000     0.000000000000     0.382000000000     0          
S544     S      0.500000000000     0.000000000000     0.618000000000     0          
S545     S      0.500000000000     0.500000000000     0.618000000000     0          
S546     S      0.000000000000     0.500000000000     0.618000000000     0          


