data_TIRDAC

_audit_creation_method RASPA-1.0
_audit_creation_date 2020-11-2
_audit_author_name 'Rocio Bueno-Perez'

_cell_length_a    39.4657
_cell_length_b    39.4657
_cell_length_c    16.3953
_cell_angle_alpha 90
_cell_angle_beta  90
_cell_angle_gamma 120
_cell_volume      22115.1

_symmetry_cell_setting          triclinic
_symmetry_space_group_name_Hall 'P 1'
_symmetry_space_group_name_H-M  'P 1'
_symmetry_Int_Tables_number     1

_symmetry_equiv_pos_as_xyz 'x,y,z'

loop_
_atom_site_label
_atom_site_type_symbol
_atom_site_fract_x
_atom_site_fract_y
_atom_site_fract_z
_atom_site_charge
C1       C      0.093470000000     0.601620000000     0.633200000000     0          
C2       C      0.124680000000     0.634300000000     0.684200000000     0          
C3       C      0.162450000000     0.642600000000     0.675000000000     0          
H4       H      0.168770000000     0.628440000000     0.637020000000     0          
C5       C      0.192000000000     0.672600000000     0.722800000000     0          
H6       H      0.218440000000     0.679040000000     0.716120000000     0          
C7       C      0.182700000000     0.692500000000     0.778400000000     0          
C8       C      0.143900000000     0.682900000000     0.785600000000     0          
H9       H      0.137340000000     0.696670000000     0.824030000000     0          
C10      C      0.115400000000     0.655000000000     0.740500000000     0          
H11      H      0.089100000000     0.649370000000     0.746610000000     0          
C12      C      0.215700000000     0.724200000000     0.826600000000     0          
C13      C      0.214300000000     0.724200000000     0.912000000000     0          
C14      C      0.183700000000     0.692100000000     0.959000000000     0          
H15      H      0.163190000000     0.670630000000     0.930870000000     0          
O16      O      0.058150000000     0.593460000000     0.649100000000     0          
O17      O      0.104070000000     0.586110000000     0.582100000000     0          
C18      C      0.398380000000     0.491850000000     0.633200000000     0          
C19      C      0.365700000000     0.490380000000     0.684200000000     0          
C20      C      0.357400000000     0.519850000000     0.675000000000     0          
H21      H      0.371560000000     0.540330000000     0.637020000000     0          
C22      C      0.327400000000     0.519400000000     0.722800000000     0          
H23      H      0.320960000000     0.539400000000     0.716120000000     0          
C24      C      0.307500000000     0.490200000000     0.778400000000     0          
C25      C      0.317100000000     0.461000000000     0.785600000000     0          
H26      H      0.303330000000     0.440670000000     0.824030000000     0          
C27      C      0.345000000000     0.460400000000     0.740500000000     0          
H28      H      0.350630000000     0.439730000000     0.746610000000     0          
C29      C      0.275800000000     0.491500000000     0.826600000000     0          
C30      C      0.275800000000     0.490100000000     0.912000000000     0          
C31      C      0.307900000000     0.491600000000     0.959000000000     0          
H32      H      0.329370000000     0.492560000000     0.930870000000     0          
O33      O      0.406540000000     0.464690000000     0.649100000000     0          
O34      O      0.413890000000     0.517960000000     0.582100000000     0          
O35      O      0.458000000000     0.401000000000     0.109000000000     0          
C36      C      0.508150000000     0.906530000000     0.633200000000     0          
C37      C      0.509620000000     0.875320000000     0.684200000000     0          
C38      C      0.480150000000     0.837550000000     0.675000000000     0          
H39      H      0.459670000000     0.831230000000     0.637020000000     0          
C40      C      0.480600000000     0.808000000000     0.722800000000     0          
H41      H      0.460600000000     0.781560000000     0.716120000000     0          
C42      C      0.509800000000     0.817300000000     0.778400000000     0          
C43      C      0.539000000000     0.856100000000     0.785600000000     0          
H44      H      0.559330000000     0.862660000000     0.824030000000     0          
C45      C      0.539600000000     0.884600000000     0.740500000000     0          
H46      H      0.560270000000     0.910900000000     0.746610000000     0          
C47      C      0.508500000000     0.784300000000     0.826600000000     0          
C48      C      0.509900000000     0.785700000000     0.912000000000     0          
C49      C      0.508400000000     0.816300000000     0.959000000000     0          
H50      H      0.507440000000     0.836810000000     0.930870000000     0          
O51      O      0.535310000000     0.941850000000     0.649100000000     0          
O52      O      0.482040000000     0.895930000000     0.582100000000     0          
O53      O      0.599000000000     0.057000000000     0.109000000000     0          
C54      C      0.906530000000     0.398380000000     0.633200000000     0          
C55      C      0.875320000000     0.365700000000     0.684200000000     0          
C56      C      0.837550000000     0.357400000000     0.675000000000     0          
H57      H      0.831230000000     0.371560000000     0.637020000000     0          
C58      C      0.808000000000     0.327400000000     0.722800000000     0          
H59      H      0.781560000000     0.320960000000     0.716120000000     0          
C60      C      0.817300000000     0.307500000000     0.778400000000     0          
C61      C      0.856100000000     0.317100000000     0.785600000000     0          
H62      H      0.862660000000     0.303330000000     0.824030000000     0          
C63      C      0.884600000000     0.345000000000     0.740500000000     0          
H64      H      0.910900000000     0.350630000000     0.746610000000     0          
C65      C      0.784300000000     0.275800000000     0.826600000000     0          
C66      C      0.785700000000     0.275800000000     0.912000000000     0          
C67      C      0.816300000000     0.307900000000     0.959000000000     0          
H68      H      0.836810000000     0.329370000000     0.930870000000     0          
O69      O      0.941850000000     0.406540000000     0.649100000000     0          
O70      O      0.895930000000     0.413890000000     0.582100000000     0          
O71      O      0.057000000000     0.458000000000     0.109000000000     0          
C72      C      0.601620000000     0.508150000000     0.633200000000     0          
C73      C      0.634300000000     0.509620000000     0.684200000000     0          
C74      C      0.642600000000     0.480150000000     0.675000000000     0          
H75      H      0.628440000000     0.459670000000     0.637020000000     0          
C76      C      0.672600000000     0.480600000000     0.722800000000     0          
H77      H      0.679040000000     0.460600000000     0.716120000000     0          
C78      C      0.692500000000     0.509800000000     0.778400000000     0          
C79      C      0.682900000000     0.539000000000     0.785600000000     0          
H80      H      0.696670000000     0.559330000000     0.824030000000     0          
C81      C      0.655000000000     0.539600000000     0.740500000000     0          
H82      H      0.649370000000     0.560270000000     0.746610000000     0          
C83      C      0.724200000000     0.508500000000     0.826600000000     0          
C84      C      0.724200000000     0.509900000000     0.912000000000     0          
C85      C      0.692100000000     0.508400000000     0.959000000000     0          
H86      H      0.670630000000     0.507440000000     0.930870000000     0          
O87      O      0.593460000000     0.535310000000     0.649100000000     0          
O88      O      0.586110000000     0.482040000000     0.582100000000     0          
C89      C      0.491850000000     0.093470000000     0.633200000000     0          
C90      C      0.490380000000     0.124680000000     0.684200000000     0          
C91      C      0.519850000000     0.162450000000     0.675000000000     0          
H92      H      0.540330000000     0.168770000000     0.637020000000     0          
C93      C      0.519400000000     0.192000000000     0.722800000000     0          
H94      H      0.539400000000     0.218440000000     0.716120000000     0          
C95      C      0.490200000000     0.182700000000     0.778400000000     0          
C96      C      0.461000000000     0.143900000000     0.785600000000     0          
H97      H      0.440670000000     0.137340000000     0.824030000000     0          
C98      C      0.460400000000     0.115400000000     0.740500000000     0          
H99      H      0.439730000000     0.089100000000     0.746610000000     0          
C100     C      0.491500000000     0.215700000000     0.826600000000     0          
C101     C      0.490100000000     0.214300000000     0.912000000000     0          
C102     C      0.491600000000     0.183700000000     0.959000000000     0          
H103     H      0.492560000000     0.163190000000     0.930870000000     0          
O104     O      0.464690000000     0.058150000000     0.649100000000     0          
O105     O      0.517960000000     0.104070000000     0.582100000000     0          
C106     C      0.601620000000     0.093470000000     0.366800000000     0          
C107     C      0.634300000000     0.124680000000     0.315800000000     0          
C108     C      0.642600000000     0.162450000000     0.325000000000     0          
H109     H      0.628440000000     0.168770000000     0.362980000000     0          
C110     C      0.672600000000     0.192000000000     0.277200000000     0          
H111     H      0.679040000000     0.218440000000     0.283880000000     0          
C112     C      0.692500000000     0.182700000000     0.221600000000     0          
C113     C      0.682900000000     0.143900000000     0.214400000000     0          
H114     H      0.696670000000     0.137340000000     0.175970000000     0          
C115     C      0.655000000000     0.115400000000     0.259500000000     0          
H116     H      0.649370000000     0.089100000000     0.253390000000     0          
C117     C      0.724200000000     0.215700000000     0.173400000000     0          
C118     C      0.724200000000     0.214300000000     0.088000000000     0          
C119     C      0.692100000000     0.183700000000     0.041000000000     0          
H120     H      0.670630000000     0.163190000000     0.069130000000     0          
O121     O      0.593460000000     0.058150000000     0.350900000000     0          
O122     O      0.586110000000     0.104070000000     0.417900000000     0          
C123     C      0.491850000000     0.398380000000     0.366800000000     0          
C124     C      0.490380000000     0.365700000000     0.315800000000     0          
C125     C      0.519850000000     0.357400000000     0.325000000000     0          
H126     H      0.540330000000     0.371560000000     0.362980000000     0          
C127     C      0.519400000000     0.327400000000     0.277200000000     0          
H128     H      0.539400000000     0.320960000000     0.283880000000     0          
C129     C      0.490200000000     0.307500000000     0.221600000000     0          
C130     C      0.461000000000     0.317100000000     0.214400000000     0          
H131     H      0.440670000000     0.303330000000     0.175970000000     0          
C132     C      0.460400000000     0.345000000000     0.259500000000     0          
H133     H      0.439730000000     0.350630000000     0.253390000000     0          
C134     C      0.491500000000     0.275800000000     0.173400000000     0          
C135     C      0.490100000000     0.275800000000     0.088000000000     0          
C136     C      0.491600000000     0.307900000000     0.041000000000     0          
H137     H      0.492560000000     0.329370000000     0.069130000000     0          
O138     O      0.464690000000     0.406540000000     0.350900000000     0          
O139     O      0.517960000000     0.413890000000     0.417900000000     0          
C140     C      0.906530000000     0.508150000000     0.366800000000     0          
C141     C      0.875320000000     0.509620000000     0.315800000000     0          
C142     C      0.837550000000     0.480150000000     0.325000000000     0          
H143     H      0.831230000000     0.459670000000     0.362980000000     0          
C144     C      0.808000000000     0.480600000000     0.277200000000     0          
H145     H      0.781560000000     0.460600000000     0.283880000000     0          
C146     C      0.817300000000     0.509800000000     0.221600000000     0          
C147     C      0.856100000000     0.539000000000     0.214400000000     0          
H148     H      0.862660000000     0.559330000000     0.175970000000     0          
C149     C      0.884600000000     0.539600000000     0.259500000000     0          
H150     H      0.910900000000     0.560270000000     0.253390000000     0          
C151     C      0.784300000000     0.508500000000     0.173400000000     0          
C152     C      0.785700000000     0.509900000000     0.088000000000     0          
C153     C      0.816300000000     0.508400000000     0.041000000000     0          
H154     H      0.836810000000     0.507440000000     0.069130000000     0          
O155     O      0.941850000000     0.535310000000     0.350900000000     0          
O156     O      0.895930000000     0.482040000000     0.417900000000     0          
O157     O      0.057000000000     0.599000000000     0.891000000000     0          
C158     C      0.398380000000     0.906530000000     0.366800000000     0          
C159     C      0.365700000000     0.875320000000     0.315800000000     0          
C160     C      0.357400000000     0.837550000000     0.325000000000     0          
H161     H      0.371560000000     0.831230000000     0.362980000000     0          
C162     C      0.327400000000     0.808000000000     0.277200000000     0          
H163     H      0.320960000000     0.781560000000     0.283880000000     0          
C164     C      0.307500000000     0.817300000000     0.221600000000     0          
C165     C      0.317100000000     0.856100000000     0.214400000000     0          
H166     H      0.303330000000     0.862660000000     0.175970000000     0          
C167     C      0.345000000000     0.884600000000     0.259500000000     0          
H168     H      0.350630000000     0.910900000000     0.253390000000     0          
C169     C      0.275800000000     0.784300000000     0.173400000000     0          
C170     C      0.275800000000     0.785700000000     0.088000000000     0          
C171     C      0.307900000000     0.816300000000     0.041000000000     0          
H172     H      0.329370000000     0.836810000000     0.069130000000     0          
O173     O      0.406540000000     0.941850000000     0.350900000000     0          
O174     O      0.413890000000     0.895930000000     0.417900000000     0          
O175     O      0.458000000000     0.057000000000     0.891000000000     0          
C176     C      0.508150000000     0.601620000000     0.366800000000     0          
C177     C      0.509620000000     0.634300000000     0.315800000000     0          
C178     C      0.480150000000     0.642600000000     0.325000000000     0          
H179     H      0.459670000000     0.628440000000     0.362980000000     0          
C180     C      0.480600000000     0.672600000000     0.277200000000     0          
H181     H      0.460600000000     0.679040000000     0.283880000000     0          
C182     C      0.509800000000     0.692500000000     0.221600000000     0          
C183     C      0.539000000000     0.682900000000     0.214400000000     0          
H184     H      0.559330000000     0.696670000000     0.175970000000     0          
C185     C      0.539600000000     0.655000000000     0.259500000000     0          
H186     H      0.560270000000     0.649370000000     0.253390000000     0          
C187     C      0.508500000000     0.724200000000     0.173400000000     0          
C188     C      0.509900000000     0.724200000000     0.088000000000     0          
C189     C      0.508400000000     0.692100000000     0.041000000000     0          
H190     H      0.507440000000     0.670630000000     0.069130000000     0          
O191     O      0.535310000000     0.593460000000     0.350900000000     0          
O192     O      0.482040000000     0.586110000000     0.417900000000     0          
O193     O      0.599000000000     0.542000000000     0.891000000000     0          
C194     C      0.093470000000     0.491850000000     0.366800000000     0          
C195     C      0.124680000000     0.490380000000     0.315800000000     0          
C196     C      0.162450000000     0.519850000000     0.325000000000     0          
H197     H      0.168770000000     0.540330000000     0.362980000000     0          
C198     C      0.192000000000     0.519400000000     0.277200000000     0          
H199     H      0.218440000000     0.539400000000     0.283880000000     0          
C200     C      0.182700000000     0.490200000000     0.221600000000     0          
C201     C      0.143900000000     0.461000000000     0.214400000000     0          
H202     H      0.137340000000     0.440670000000     0.175970000000     0          
C203     C      0.115400000000     0.460400000000     0.259500000000     0          
H204     H      0.089100000000     0.439730000000     0.253390000000     0          
C205     C      0.215700000000     0.491500000000     0.173400000000     0          
C206     C      0.214300000000     0.490100000000     0.088000000000     0          
C207     C      0.183700000000     0.491600000000     0.041000000000     0          
H208     H      0.163190000000     0.492560000000     0.069130000000     0          
O209     O      0.058150000000     0.464690000000     0.350900000000     0          
O210     O      0.104070000000     0.517960000000     0.417900000000     0          
C211     C      0.906530000000     0.398380000000     0.366800000000     0          
C212     C      0.875320000000     0.365700000000     0.315800000000     0          
C213     C      0.837550000000     0.357400000000     0.325000000000     0          
H214     H      0.831230000000     0.371560000000     0.362980000000     0          
C215     C      0.808000000000     0.327400000000     0.277200000000     0          
H216     H      0.781560000000     0.320960000000     0.283880000000     0          
C217     C      0.817300000000     0.307500000000     0.221600000000     0          
C218     C      0.856100000000     0.317100000000     0.214400000000     0          
H219     H      0.862660000000     0.303330000000     0.175970000000     0          
C220     C      0.884600000000     0.345000000000     0.259500000000     0          
H221     H      0.910900000000     0.350630000000     0.253390000000     0          
C222     C      0.784300000000     0.275800000000     0.173400000000     0          
C223     C      0.785700000000     0.275800000000     0.088000000000     0          
C224     C      0.816300000000     0.307900000000     0.041000000000     0          
H225     H      0.836810000000     0.329370000000     0.069130000000     0          
O226     O      0.941850000000     0.406540000000     0.350900000000     0          
O227     O      0.895930000000     0.413890000000     0.417900000000     0          
C228     C      0.601620000000     0.508150000000     0.366800000000     0          
C229     C      0.634300000000     0.509620000000     0.315800000000     0          
C230     C      0.642600000000     0.480150000000     0.325000000000     0          
H231     H      0.628440000000     0.459670000000     0.362980000000     0          
C232     C      0.672600000000     0.480600000000     0.277200000000     0          
H233     H      0.679040000000     0.460600000000     0.283880000000     0          
C234     C      0.692500000000     0.509800000000     0.221600000000     0          
C235     C      0.682900000000     0.539000000000     0.214400000000     0          
H236     H      0.696670000000     0.559330000000     0.175970000000     0          
C237     C      0.655000000000     0.539600000000     0.259500000000     0          
H238     H      0.649370000000     0.560270000000     0.253390000000     0          
C239     C      0.724200000000     0.508500000000     0.173400000000     0          
C240     C      0.724200000000     0.509900000000     0.088000000000     0          
C241     C      0.692100000000     0.508400000000     0.041000000000     0          
H242     H      0.670630000000     0.507440000000     0.069130000000     0          
O243     O      0.593460000000     0.535310000000     0.350900000000     0          
O244     O      0.586110000000     0.482040000000     0.417900000000     0          
O245     O      0.542000000000     0.599000000000     0.891000000000     0          
C246     C      0.491850000000     0.093470000000     0.366800000000     0          
C247     C      0.490380000000     0.124680000000     0.315800000000     0          
C248     C      0.519850000000     0.162450000000     0.325000000000     0          
H249     H      0.540330000000     0.168770000000     0.362980000000     0          
C250     C      0.519400000000     0.192000000000     0.277200000000     0          
H251     H      0.539400000000     0.218440000000     0.283880000000     0          
C252     C      0.490200000000     0.182700000000     0.221600000000     0          
C253     C      0.461000000000     0.143900000000     0.214400000000     0          
H254     H      0.440670000000     0.137340000000     0.175970000000     0          
C255     C      0.460400000000     0.115400000000     0.259500000000     0          
H256     H      0.439730000000     0.089100000000     0.253390000000     0          
C257     C      0.491500000000     0.215700000000     0.173400000000     0          
C258     C      0.490100000000     0.214300000000     0.088000000000     0          
C259     C      0.491600000000     0.183700000000     0.041000000000     0          
H260     H      0.492560000000     0.163190000000     0.069130000000     0          
O261     O      0.464690000000     0.058150000000     0.350900000000     0          
O262     O      0.517960000000     0.104070000000     0.417900000000     0          
O263     O      0.401000000000     0.943000000000     0.891000000000     0          
C264     C      0.093470000000     0.601620000000     0.366800000000     0          
C265     C      0.124680000000     0.634300000000     0.315800000000     0          
C266     C      0.162450000000     0.642600000000     0.325000000000     0          
H267     H      0.168770000000     0.628440000000     0.362980000000     0          
C268     C      0.192000000000     0.672600000000     0.277200000000     0          
H269     H      0.218440000000     0.679040000000     0.283880000000     0          
C270     C      0.182700000000     0.692500000000     0.221600000000     0          
C271     C      0.143900000000     0.682900000000     0.214400000000     0          
H272     H      0.137340000000     0.696670000000     0.175970000000     0          
C273     C      0.115400000000     0.655000000000     0.259500000000     0          
H274     H      0.089100000000     0.649370000000     0.253390000000     0          
C275     C      0.215700000000     0.724200000000     0.173400000000     0          
C276     C      0.214300000000     0.724200000000     0.088000000000     0          
C277     C      0.183700000000     0.692100000000     0.041000000000     0          
H278     H      0.163190000000     0.670630000000     0.069130000000     0          
O279     O      0.058150000000     0.593460000000     0.350900000000     0          
O280     O      0.104070000000     0.586110000000     0.417900000000     0          
O281     O      0.943000000000     0.542000000000     0.891000000000     0          
C282     C      0.398380000000     0.491850000000     0.366800000000     0          
C283     C      0.365700000000     0.490380000000     0.315800000000     0          
C284     C      0.357400000000     0.519850000000     0.325000000000     0          
H285     H      0.371560000000     0.540330000000     0.362980000000     0          
C286     C      0.327400000000     0.519400000000     0.277200000000     0          
H287     H      0.320960000000     0.539400000000     0.283880000000     0          
C288     C      0.307500000000     0.490200000000     0.221600000000     0          
C289     C      0.317100000000     0.461000000000     0.214400000000     0          
H290     H      0.303330000000     0.440670000000     0.175970000000     0          
C291     C      0.345000000000     0.460400000000     0.259500000000     0          
H292     H      0.350630000000     0.439730000000     0.253390000000     0          
C293     C      0.275800000000     0.491500000000     0.173400000000     0          
C294     C      0.275800000000     0.490100000000     0.088000000000     0          
C295     C      0.307900000000     0.491600000000     0.041000000000     0          
H296     H      0.329370000000     0.492560000000     0.069130000000     0          
O297     O      0.406540000000     0.464690000000     0.350900000000     0          
O298     O      0.413890000000     0.517960000000     0.417900000000     0          
C299     C      0.508150000000     0.906530000000     0.366800000000     0          
C300     C      0.509620000000     0.875320000000     0.315800000000     0          
C301     C      0.480150000000     0.837550000000     0.325000000000     0          
H302     H      0.459670000000     0.831230000000     0.362980000000     0          
C303     C      0.480600000000     0.808000000000     0.277200000000     0          
H304     H      0.460600000000     0.781560000000     0.283880000000     0          
C305     C      0.509800000000     0.817300000000     0.221600000000     0          
C306     C      0.539000000000     0.856100000000     0.214400000000     0          
H307     H      0.559330000000     0.862660000000     0.175970000000     0          
C308     C      0.539600000000     0.884600000000     0.259500000000     0          
H309     H      0.560270000000     0.910900000000     0.253390000000     0          
C310     C      0.508500000000     0.784300000000     0.173400000000     0          
C311     C      0.509900000000     0.785700000000     0.088000000000     0          
C312     C      0.508400000000     0.816300000000     0.041000000000     0          
H313     H      0.507440000000     0.836810000000     0.069130000000     0          
O314     O      0.535310000000     0.941850000000     0.350900000000     0          
O315     O      0.482040000000     0.895930000000     0.417900000000     0          
C316     C      0.398380000000     0.906530000000     0.633200000000     0          
C317     C      0.365700000000     0.875320000000     0.684200000000     0          
C318     C      0.357400000000     0.837550000000     0.675000000000     0          
H319     H      0.371560000000     0.831230000000     0.637020000000     0          
C320     C      0.327400000000     0.808000000000     0.722800000000     0          
H321     H      0.320960000000     0.781560000000     0.716120000000     0          
C322     C      0.307500000000     0.817300000000     0.778400000000     0          
C323     C      0.317100000000     0.856100000000     0.785600000000     0          
H324     H      0.303330000000     0.862660000000     0.824030000000     0          
C325     C      0.345000000000     0.884600000000     0.740500000000     0          
H326     H      0.350630000000     0.910900000000     0.746610000000     0          
C327     C      0.275800000000     0.784300000000     0.826600000000     0          
C328     C      0.275800000000     0.785700000000     0.912000000000     0          
C329     C      0.307900000000     0.816300000000     0.959000000000     0          
H330     H      0.329370000000     0.836810000000     0.930870000000     0          
O331     O      0.406540000000     0.941850000000     0.649100000000     0          
O332     O      0.413890000000     0.895930000000     0.582100000000     0          
C333     C      0.508150000000     0.601620000000     0.633200000000     0          
C334     C      0.509620000000     0.634300000000     0.684200000000     0          
C335     C      0.480150000000     0.642600000000     0.675000000000     0          
H336     H      0.459670000000     0.628440000000     0.637020000000     0          
C337     C      0.480600000000     0.672600000000     0.722800000000     0          
H338     H      0.460600000000     0.679040000000     0.716120000000     0          
C339     C      0.509800000000     0.692500000000     0.778400000000     0          
C340     C      0.539000000000     0.682900000000     0.785600000000     0          
H341     H      0.559330000000     0.696670000000     0.824030000000     0          
C342     C      0.539600000000     0.655000000000     0.740500000000     0          
H343     H      0.560270000000     0.649370000000     0.746610000000     0          
C344     C      0.508500000000     0.724200000000     0.826600000000     0          
C345     C      0.509900000000     0.724200000000     0.912000000000     0          
C346     C      0.508400000000     0.692100000000     0.959000000000     0          
H347     H      0.507440000000     0.670630000000     0.930870000000     0          
O348     O      0.535310000000     0.593460000000     0.649100000000     0          
O349     O      0.482040000000     0.586110000000     0.582100000000     0          
C350     C      0.093470000000     0.491850000000     0.633200000000     0          
C351     C      0.124680000000     0.490380000000     0.684200000000     0          
C352     C      0.162450000000     0.519850000000     0.675000000000     0          
H353     H      0.168770000000     0.540330000000     0.637020000000     0          
C354     C      0.192000000000     0.519400000000     0.722800000000     0          
H355     H      0.218440000000     0.539400000000     0.716120000000     0          
C356     C      0.182700000000     0.490200000000     0.778400000000     0          
C357     C      0.143900000000     0.461000000000     0.785600000000     0          
H358     H      0.137340000000     0.440670000000     0.824030000000     0          
C359     C      0.115400000000     0.460400000000     0.740500000000     0          
H360     H      0.089100000000     0.439730000000     0.746610000000     0          
C361     C      0.215700000000     0.491500000000     0.826600000000     0          
C362     C      0.214300000000     0.490100000000     0.912000000000     0          
C363     C      0.183700000000     0.491600000000     0.959000000000     0          
H364     H      0.163190000000     0.492560000000     0.930870000000     0          
O365     O      0.058150000000     0.464690000000     0.649100000000     0          
O366     O      0.104070000000     0.517960000000     0.582100000000     0          
O367     O      0.943000000000     0.401000000000     0.109000000000     0          
C368     C      0.601620000000     0.093470000000     0.633200000000     0          
C369     C      0.634300000000     0.124680000000     0.684200000000     0          
C370     C      0.642600000000     0.162450000000     0.675000000000     0          
H371     H      0.628440000000     0.168770000000     0.637020000000     0          
C372     C      0.672600000000     0.192000000000     0.722800000000     0          
H373     H      0.679040000000     0.218440000000     0.716120000000     0          
C374     C      0.692500000000     0.182700000000     0.778400000000     0          
C375     C      0.682900000000     0.143900000000     0.785600000000     0          
H376     H      0.696670000000     0.137340000000     0.824030000000     0          
C377     C      0.655000000000     0.115400000000     0.740500000000     0          
H378     H      0.649370000000     0.089100000000     0.746610000000     0          
C379     C      0.724200000000     0.215700000000     0.826600000000     0          
C380     C      0.724200000000     0.214300000000     0.912000000000     0          
C381     C      0.692100000000     0.183700000000     0.959000000000     0          
H382     H      0.670630000000     0.163190000000     0.930870000000     0          
O383     O      0.593460000000     0.058150000000     0.649100000000     0          
O384     O      0.586110000000     0.104070000000     0.582100000000     0          
O385     O      0.542000000000     0.943000000000     0.109000000000     0          
C386     C      0.491850000000     0.398380000000     0.633200000000     0          
C387     C      0.490380000000     0.365700000000     0.684200000000     0          
C388     C      0.519850000000     0.357400000000     0.675000000000     0          
H389     H      0.540330000000     0.371560000000     0.637020000000     0          
C390     C      0.519400000000     0.327400000000     0.722800000000     0          
H391     H      0.539400000000     0.320960000000     0.716120000000     0          
C392     C      0.490200000000     0.307500000000     0.778400000000     0          
C393     C      0.461000000000     0.317100000000     0.785600000000     0          
H394     H      0.440670000000     0.303330000000     0.824030000000     0          
C395     C      0.460400000000     0.345000000000     0.740500000000     0          
H396     H      0.439730000000     0.350630000000     0.746610000000     0          
C397     C      0.491500000000     0.275800000000     0.826600000000     0          
C398     C      0.490100000000     0.275800000000     0.912000000000     0          
C399     C      0.491600000000     0.307900000000     0.959000000000     0          
H400     H      0.492560000000     0.329370000000     0.930870000000     0          
O401     O      0.464690000000     0.406540000000     0.649100000000     0          
O402     O      0.517960000000     0.413890000000     0.582100000000     0          
O403     O      0.401000000000     0.458000000000     0.109000000000     0          
C404     C      0.906530000000     0.508150000000     0.633200000000     0          
C405     C      0.875320000000     0.509620000000     0.684200000000     0          
C406     C      0.837550000000     0.480150000000     0.675000000000     0          
H407     H      0.831230000000     0.459670000000     0.637020000000     0          
C408     C      0.808000000000     0.480600000000     0.722800000000     0          
H409     H      0.781560000000     0.460600000000     0.716120000000     0          
C410     C      0.817300000000     0.509800000000     0.778400000000     0          
C411     C      0.856100000000     0.539000000000     0.785600000000     0          
H412     H      0.862660000000     0.559330000000     0.824030000000     0          
C413     C      0.884600000000     0.539600000000     0.740500000000     0          
H414     H      0.910900000000     0.560270000000     0.746610000000     0          
C415     C      0.784300000000     0.508500000000     0.826600000000     0          
C416     C      0.785700000000     0.509900000000     0.912000000000     0          
C417     C      0.816300000000     0.508400000000     0.959000000000     0          
H418     H      0.836810000000     0.507440000000     0.930870000000     0          
O419     O      0.941850000000     0.535310000000     0.649100000000     0          
O420     O      0.895930000000     0.482040000000     0.582100000000     0          
C421     C      0.245650000000     0.754350000000     0.788400000000     0          
H422     H      0.245510000000     0.754480000000     0.730490000000     0          
C423     C      0.245000000000     0.755000000000     0.957600000000     0          
C424     C      0.245650000000     0.491300000000     0.788400000000     0          
H425     H      0.245520000000     0.491030000000     0.730490000000     0          
C426     C      0.245000000000     0.490000000000     0.957600000000     0          
C427     C      0.508700000000     0.754350000000     0.788400000000     0          
H428     H      0.508970000000     0.754480000000     0.730490000000     0          
C429     C      0.510000000000     0.755000000000     0.957600000000     0          
C430     C      0.754350000000     0.245650000000     0.788400000000     0          
H431     H      0.754490000000     0.245520000000     0.730490000000     0          
C432     C      0.755000000000     0.245000000000     0.957600000000     0          
C433     C      0.754350000000     0.508700000000     0.788400000000     0          
H434     H      0.754480000000     0.508970000000     0.730490000000     0          
C435     C      0.755000000000     0.510000000000     0.957600000000     0          
C436     C      0.491300000000     0.245650000000     0.788400000000     0          
H437     H      0.491030000000     0.245510000000     0.730490000000     0          
C438     C      0.490000000000     0.245000000000     0.957600000000     0          
C439     C      0.754350000000     0.245650000000     0.211600000000     0          
H440     H      0.754480000000     0.245510000000     0.269510000000     0          
C441     C      0.755000000000     0.245000000000     0.042400000000     0          
C442     C      0.491300000000     0.245650000000     0.211600000000     0          
H443     H      0.491030000000     0.245520000000     0.269510000000     0          
C444     C      0.490000000000     0.245000000000     0.042400000000     0          
C445     C      0.754350000000     0.508700000000     0.211600000000     0          
H446     H      0.754490000000     0.508970000000     0.269510000000     0          
C447     C      0.755000000000     0.510000000000     0.042400000000     0          
C448     C      0.245650000000     0.754350000000     0.211600000000     0          
H449     H      0.245520000000     0.754490000000     0.269510000000     0          
C450     C      0.245000000000     0.755000000000     0.042400000000     0          
C451     C      0.508700000000     0.754350000000     0.211600000000     0          
H452     H      0.508970000000     0.754480000000     0.269510000000     0          
C453     C      0.510000000000     0.755000000000     0.042400000000     0          
C454     C      0.245650000000     0.491300000000     0.211600000000     0          
H455     H      0.245510000000     0.491030000000     0.269510000000     0          
C456     C      0.245000000000     0.490000000000     0.042400000000     0          
O457     O      0.035880000000     0.517940000000     0.391600000000     0          
O458     O      0.482060000000     0.517940000000     0.391600000000     0          
O459     O      0.482060000000     0.964120000000     0.391600000000     0          
O460     O      0.964120000000     0.482060000000     0.391600000000     0          
O461     O      0.517940000000     0.482060000000     0.391600000000     0          
O462     O      0.517940000000     0.035880000000     0.391600000000     0          
O463     O      0.517940000000     0.035880000000     0.608400000000     0          
O464     O      0.517940000000     0.482060000000     0.608400000000     0          
O465     O      0.964120000000     0.482060000000     0.608400000000     0          
O466     O      0.482060000000     0.964120000000     0.608400000000     0          
O467     O      0.482060000000     0.517940000000     0.608400000000     0          
O468     O      0.035880000000     0.517940000000     0.608400000000     0          
O469     O      0.036010000000     0.471740000000     0.500000000000     0          
O470     O      0.528260000000     0.564270000000     0.500000000000     0          
O471     O      0.435730000000     0.963990000000     0.500000000000     0          
Mo472    Mo     0.607600000000     0.984100000000     0.500000000000     0          
O473     O      0.588900000000     0.931900000000     0.500000000000     0          
O474     O      0.963990000000     0.528260000000     0.500000000000     0          
O475     O      0.471740000000     0.435730000000     0.500000000000     0          
O476     O      0.564270000000     0.036010000000     0.500000000000     0          
Mo477    Mo     0.392400000000     0.015900000000     0.500000000000     0          
O478     O      0.411100000000     0.068100000000     0.500000000000     0          
O479     O      0.471740000000     0.036010000000     0.500000000000     0          
O480     O      0.564270000000     0.528260000000     0.500000000000     0          
Mo481    Mo     0.392400000000     0.376500000000     0.500000000000     0          
O482     O      0.411100000000     0.343000000000     0.500000000000     0          
O483     O      0.963990000000     0.435730000000     0.500000000000     0          
Mo484    Mo     0.984100000000     0.607600000000     0.500000000000     0          
O485     O      0.931900000000     0.588900000000     0.500000000000     0          
O486     O      0.528260000000     0.963990000000     0.500000000000     0          
O487     O      0.435730000000     0.471740000000     0.500000000000     0          
Mo488    Mo     0.607600000000     0.623500000000     0.500000000000     0          
O489     O      0.588900000000     0.657000000000     0.500000000000     0          
O490     O      0.036010000000     0.564270000000     0.500000000000     0          
Mo491    Mo     0.015900000000     0.392400000000     0.500000000000     0          
O492     O      0.068100000000     0.411100000000     0.500000000000     0          
O493     O      0.000000000000     0.599300000000     0.425000000000     0          
Zr494    Zr     0.000000000000     0.545310000000     0.392470000000     0          
O495     O      0.400700000000     0.400700000000     0.425000000000     0          
O496     O      0.462900000000     0.462900000000     0.261700000000     0          
Zr497    Zr     0.454690000000     0.454690000000     0.392470000000     0          
Mo498    Mo     0.435400000000     0.435400000000     0.167400000000     0          
O499     O      0.379800000000     0.379800000000     0.203000000000     0          
O500     O      0.599300000000     0.000000000000     0.425000000000     0          
O501     O      0.537100000000     0.000000000000     0.261700000000     0          
Zr502    Zr     0.545310000000     0.000000000000     0.392470000000     0          
Mo503    Mo     0.564600000000     0.000000000000     0.167400000000     0          
O504     O      0.620200000000     0.000000000000     0.203000000000     0          
O505     O      0.000000000000     0.400700000000     0.425000000000     0          
O506     O      0.000000000000     0.462900000000     0.261700000000     0          
Zr507    Zr     0.000000000000     0.454690000000     0.392470000000     0          
Mo508    Mo     0.000000000000     0.435400000000     0.167400000000     0          
O509     O      0.000000000000     0.379800000000     0.203000000000     0          
O510     O      0.599300000000     0.599300000000     0.425000000000     0          
Zr511    Zr     0.545310000000     0.545310000000     0.392470000000     0          
O512     O      0.400700000000     0.000000000000     0.425000000000     0          
Zr513    Zr     0.454690000000     0.000000000000     0.392470000000     0          
O514     O      0.599300000000     0.000000000000     0.575000000000     0          
Zr515    Zr     0.545310000000     0.000000000000     0.607530000000     0          
O516     O      0.400700000000     0.400700000000     0.575000000000     0          
Zr517    Zr     0.454690000000     0.454690000000     0.607530000000     0          
O518     O      0.000000000000     0.599300000000     0.575000000000     0          
O519     O      0.000000000000     0.537100000000     0.738300000000     0          
Zr520    Zr     0.000000000000     0.545310000000     0.607530000000     0          
Mo521    Mo     0.000000000000     0.564600000000     0.832600000000     0          
O522     O      0.000000000000     0.620200000000     0.797000000000     0          
O523     O      0.400700000000     0.000000000000     0.575000000000     0          
O524     O      0.462900000000     0.000000000000     0.738300000000     0          
Zr525    Zr     0.454690000000     0.000000000000     0.607530000000     0          
Mo526    Mo     0.435400000000     0.000000000000     0.832600000000     0          
O527     O      0.379800000000     0.000000000000     0.797000000000     0          
O528     O      0.599300000000     0.599300000000     0.575000000000     0          
O529     O      0.537100000000     0.537100000000     0.738300000000     0          
Zr530    Zr     0.545310000000     0.545310000000     0.607530000000     0          
Mo531    Mo     0.564600000000     0.564600000000     0.832600000000     0          
O532     O      0.620200000000     0.620200000000     0.797000000000     0          
O533     O      0.000000000000     0.400700000000     0.575000000000     0          
Zr534    Zr     0.000000000000     0.454690000000     0.607530000000     0          
Zr535    Zr     0.071500000000     0.535750000000     0.500000000000     0          
Zr536    Zr     0.464250000000     0.535750000000     0.500000000000     0          
Zr537    Zr     0.464250000000     0.928500000000     0.500000000000     0          
Zr538    Zr     0.928500000000     0.464250000000     0.500000000000     0          
Zr539    Zr     0.535750000000     0.464250000000     0.500000000000     0          
Zr540    Zr     0.535750000000     0.071500000000     0.500000000000     0          
O541     O      0.000000000000     0.657900000000     0.500000000000     0          
O542     O      0.342100000000     0.342100000000     0.500000000000     0          
O543     O      0.657900000000     0.000000000000     0.500000000000     0          
O544     O      0.000000000000     0.342100000000     0.500000000000     0          
O545     O      0.657900000000     0.657900000000     0.500000000000     0          
O546     O      0.342100000000     0.000000000000     0.500000000000     0          


