data_TURFIX

_audit_creation_method RASPA-1.0
_audit_creation_date 2020-11-2
_audit_author_name 'Rocio Bueno-Perez'

_cell_length_a    46.098
_cell_length_b    46.098
_cell_length_c    46.098
_cell_angle_alpha 90
_cell_angle_beta  90
_cell_angle_gamma 90
_cell_volume      97959.4

_symmetry_cell_setting          triclinic
_symmetry_space_group_name_Hall 'P 1'
_symmetry_space_group_name_H-M  'P 1'
_symmetry_Int_Tables_number     1

_symmetry_equiv_pos_as_xyz 'x,y,z'

loop_
_atom_site_label
_atom_site_type_symbol
_atom_site_fract_x
_atom_site_fract_y
_atom_site_fract_z
_atom_site_charge
Zr1      Zr     0.000000000000     0.000000000000     0.053770000000     0          
Zr2      Zr     0.000000000000     0.500000000000     0.553770000000     0          
Zr3      Zr     0.500000000000     0.000000000000     0.553770000000     0          
Zr4      Zr     0.500000000000     0.500000000000     0.053770000000     0          
Zr5      Zr     0.000000000000     0.000000000000     0.946230000000     0          
Zr6      Zr     0.000000000000     0.500000000000     0.446230000000     0          
Zr7      Zr     0.500000000000     0.000000000000     0.446230000000     0          
Zr8      Zr     0.500000000000     0.500000000000     0.946230000000     0          
Zr9      Zr     0.053770000000     0.000000000000     0.000000000000     0          
Zr10     Zr     0.053770000000     0.500000000000     0.500000000000     0          
Zr11     Zr     0.553770000000     0.000000000000     0.500000000000     0          
Zr12     Zr     0.553770000000     0.500000000000     0.000000000000     0          
Zr13     Zr     0.946230000000     0.000000000000     0.000000000000     0          
Zr14     Zr     0.946230000000     0.500000000000     0.500000000000     0          
Zr15     Zr     0.446230000000     0.000000000000     0.500000000000     0          
Zr16     Zr     0.446230000000     0.500000000000     0.000000000000     0          
Zr17     Zr     0.000000000000     0.053770000000     0.000000000000     0          
Zr18     Zr     0.000000000000     0.553770000000     0.500000000000     0          
Zr19     Zr     0.500000000000     0.053770000000     0.500000000000     0          
Zr20     Zr     0.500000000000     0.553770000000     0.000000000000     0          
Zr21     Zr     0.000000000000     0.946230000000     0.000000000000     0          
Zr22     Zr     0.000000000000     0.446230000000     0.500000000000     0          
Zr23     Zr     0.500000000000     0.946230000000     0.500000000000     0          
Zr24     Zr     0.500000000000     0.446230000000     0.000000000000     0          
O25      O      0.026270000000     0.026270000000     0.026270000000     0          
O26      O      0.026270000000     0.526270000000     0.526270000000     0          
O27      O      0.526270000000     0.026270000000     0.526270000000     0          
O28      O      0.526270000000     0.526270000000     0.026270000000     0          
O29      O      0.973730000000     0.973730000000     0.026270000000     0          
O30      O      0.973730000000     0.473730000000     0.526270000000     0          
O31      O      0.473730000000     0.973730000000     0.526270000000     0          
O32      O      0.473730000000     0.473730000000     0.026270000000     0          
O33      O      0.973730000000     0.026270000000     0.973730000000     0          
O34      O      0.973730000000     0.526270000000     0.473730000000     0          
O35      O      0.473730000000     0.026270000000     0.473730000000     0          
O36      O      0.473730000000     0.526270000000     0.973730000000     0          
O37      O      0.026270000000     0.973730000000     0.973730000000     0          
O38      O      0.026270000000     0.473730000000     0.473730000000     0          
O39      O      0.526270000000     0.973730000000     0.473730000000     0          
O40      O      0.526270000000     0.473730000000     0.973730000000     0          
O41      O      0.026270000000     0.026270000000     0.973730000000     0          
O42      O      0.026270000000     0.526270000000     0.473730000000     0          
O43      O      0.526270000000     0.026270000000     0.473730000000     0          
O44      O      0.526270000000     0.526270000000     0.973730000000     0          
O45      O      0.973730000000     0.973730000000     0.973730000000     0          
O46      O      0.973730000000     0.473730000000     0.473730000000     0          
O47      O      0.473730000000     0.973730000000     0.473730000000     0          
O48      O      0.473730000000     0.473730000000     0.973730000000     0          
O49      O      0.026270000000     0.973730000000     0.026270000000     0          
O50      O      0.026270000000     0.473730000000     0.526270000000     0          
O51      O      0.526270000000     0.973730000000     0.526270000000     0          
O52      O      0.526270000000     0.473730000000     0.026270000000     0          
O53      O      0.973730000000     0.026270000000     0.026270000000     0          
O54      O      0.973730000000     0.526270000000     0.526270000000     0          
O55      O      0.473730000000     0.026270000000     0.526270000000     0          
O56      O      0.473730000000     0.526270000000     0.026270000000     0          
O57      O      0.000000000000     0.958600000000     0.078200000000     0          
C58      C      0.000000000000     0.920400000000     0.118400000000     0          
C59      C      0.000000000000     0.898300000000     0.139600000000     0          
C60      C      0.000000000000     0.814000000000     0.223700000000     0          
C61      C      0.000000000000     0.792500000000     0.245200000000     0          
O62      O      0.000000000000     0.458600000000     0.578200000000     0          
C63      C      0.000000000000     0.420400000000     0.618400000000     0          
C64      C      0.000000000000     0.398300000000     0.639600000000     0          
C65      C      0.000000000000     0.314000000000     0.723700000000     0          
C66      C      0.000000000000     0.292500000000     0.745200000000     0          
O67      O      0.500000000000     0.958600000000     0.578200000000     0          
C68      C      0.500000000000     0.920400000000     0.618400000000     0          
C69      C      0.500000000000     0.898300000000     0.639600000000     0          
C70      C      0.500000000000     0.814000000000     0.723700000000     0          
C71      C      0.500000000000     0.792500000000     0.745200000000     0          
O72      O      0.500000000000     0.458600000000     0.078200000000     0          
C73      C      0.500000000000     0.420400000000     0.118400000000     0          
C74      C      0.500000000000     0.398300000000     0.139600000000     0          
C75      C      0.500000000000     0.314000000000     0.223700000000     0          
C76      C      0.500000000000     0.292500000000     0.245200000000     0          
O77      O      0.000000000000     0.041400000000     0.078200000000     0          
C78      C      0.000000000000     0.079600000000     0.118400000000     0          
C79      C      0.000000000000     0.101700000000     0.139600000000     0          
C80      C      0.000000000000     0.186000000000     0.223700000000     0          
C81      C      0.000000000000     0.207500000000     0.245200000000     0          
C82      C      0.000000000000     0.179100000000     0.164500000000     0          
O83      O      0.000000000000     0.541400000000     0.578200000000     0          
C84      C      0.000000000000     0.579600000000     0.618400000000     0          
C85      C      0.000000000000     0.601700000000     0.639600000000     0          
C86      C      0.000000000000     0.686000000000     0.723700000000     0          
C87      C      0.000000000000     0.707500000000     0.745200000000     0          
C88      C      0.000000000000     0.679100000000     0.664500000000     0          
O89      O      0.500000000000     0.041400000000     0.578200000000     0          
C90      C      0.500000000000     0.079600000000     0.618400000000     0          
C91      C      0.500000000000     0.101700000000     0.639600000000     0          
C92      C      0.500000000000     0.186000000000     0.723700000000     0          
C93      C      0.500000000000     0.207500000000     0.745200000000     0          
C94      C      0.500000000000     0.179100000000     0.664500000000     0          
O95      O      0.500000000000     0.541400000000     0.078200000000     0          
C96      C      0.500000000000     0.579600000000     0.118400000000     0          
C97      C      0.500000000000     0.601700000000     0.139600000000     0          
C98      C      0.500000000000     0.686000000000     0.223700000000     0          
C99      C      0.500000000000     0.707500000000     0.245200000000     0          
C100     C      0.500000000000     0.679100000000     0.164500000000     0          
O101     O      0.000000000000     0.958600000000     0.921800000000     0          
C102     C      0.000000000000     0.920400000000     0.881600000000     0          
C103     C      0.000000000000     0.898300000000     0.860400000000     0          
C104     C      0.000000000000     0.814000000000     0.776300000000     0          
C105     C      0.000000000000     0.792500000000     0.754800000000     0          
O106     O      0.000000000000     0.458600000000     0.421800000000     0          
C107     C      0.000000000000     0.420400000000     0.381600000000     0          
C108     C      0.000000000000     0.398300000000     0.360400000000     0          
C109     C      0.000000000000     0.314000000000     0.276300000000     0          
C110     C      0.000000000000     0.292500000000     0.254800000000     0          
O111     O      0.500000000000     0.958600000000     0.421800000000     0          
C112     C      0.500000000000     0.920400000000     0.381600000000     0          
C113     C      0.500000000000     0.898300000000     0.360400000000     0          
C114     C      0.500000000000     0.814000000000     0.276300000000     0          
C115     C      0.500000000000     0.792500000000     0.254800000000     0          
O116     O      0.500000000000     0.458600000000     0.921800000000     0          
C117     C      0.500000000000     0.420400000000     0.881600000000     0          
C118     C      0.500000000000     0.398300000000     0.860400000000     0          
C119     C      0.500000000000     0.314000000000     0.776300000000     0          
C120     C      0.500000000000     0.292500000000     0.754800000000     0          
O121     O      0.000000000000     0.041400000000     0.921800000000     0          
C122     C      0.000000000000     0.079600000000     0.881600000000     0          
C123     C      0.000000000000     0.101700000000     0.860400000000     0          
C124     C      0.000000000000     0.186000000000     0.776300000000     0          
C125     C      0.000000000000     0.207500000000     0.754800000000     0          
C126     C      0.000000000000     0.179100000000     0.835500000000     0          
O127     O      0.000000000000     0.541400000000     0.421800000000     0          
C128     C      0.000000000000     0.579600000000     0.381600000000     0          
C129     C      0.000000000000     0.601700000000     0.360400000000     0          
C130     C      0.000000000000     0.686000000000     0.276300000000     0          
C131     C      0.000000000000     0.707500000000     0.254800000000     0          
C132     C      0.000000000000     0.679100000000     0.335500000000     0          
O133     O      0.500000000000     0.041400000000     0.421800000000     0          
C134     C      0.500000000000     0.079600000000     0.381600000000     0          
C135     C      0.500000000000     0.101700000000     0.360400000000     0          
C136     C      0.500000000000     0.186000000000     0.276300000000     0          
C137     C      0.500000000000     0.207500000000     0.254800000000     0          
C138     C      0.500000000000     0.179100000000     0.335500000000     0          
O139     O      0.500000000000     0.541400000000     0.921800000000     0          
C140     C      0.500000000000     0.579600000000     0.881600000000     0          
C141     C      0.500000000000     0.601700000000     0.860400000000     0          
C142     C      0.500000000000     0.686000000000     0.776300000000     0          
C143     C      0.500000000000     0.707500000000     0.754800000000     0          
C144     C      0.500000000000     0.679100000000     0.835500000000     0          
O145     O      0.078200000000     0.000000000000     0.958600000000     0          
C146     C      0.118400000000     0.000000000000     0.920400000000     0          
C147     C      0.139600000000     0.000000000000     0.898300000000     0          
C148     C      0.223700000000     0.000000000000     0.814000000000     0          
C149     C      0.245200000000     0.000000000000     0.792500000000     0          
O150     O      0.078200000000     0.500000000000     0.458600000000     0          
C151     C      0.118400000000     0.500000000000     0.420400000000     0          
C152     C      0.139600000000     0.500000000000     0.398300000000     0          
C153     C      0.223700000000     0.500000000000     0.314000000000     0          
C154     C      0.245200000000     0.500000000000     0.292500000000     0          
O155     O      0.578200000000     0.000000000000     0.458600000000     0          
C156     C      0.618400000000     0.000000000000     0.420400000000     0          
C157     C      0.639600000000     0.000000000000     0.398300000000     0          
C158     C      0.723700000000     0.000000000000     0.314000000000     0          
C159     C      0.745200000000     0.000000000000     0.292500000000     0          
O160     O      0.578200000000     0.500000000000     0.958600000000     0          
C161     C      0.618400000000     0.500000000000     0.920400000000     0          
C162     C      0.639600000000     0.500000000000     0.898300000000     0          
C163     C      0.723700000000     0.500000000000     0.814000000000     0          
C164     C      0.745200000000     0.500000000000     0.792500000000     0          
O165     O      0.078200000000     0.000000000000     0.041400000000     0          
C166     C      0.118400000000     0.000000000000     0.079600000000     0          
C167     C      0.139600000000     0.000000000000     0.101700000000     0          
C168     C      0.223700000000     0.000000000000     0.186000000000     0          
C169     C      0.245200000000     0.000000000000     0.207500000000     0          
C170     C      0.164500000000     0.000000000000     0.179100000000     0          
O171     O      0.078200000000     0.500000000000     0.541400000000     0          
C172     C      0.118400000000     0.500000000000     0.579600000000     0          
C173     C      0.139600000000     0.500000000000     0.601700000000     0          
C174     C      0.223700000000     0.500000000000     0.686000000000     0          
C175     C      0.245200000000     0.500000000000     0.707500000000     0          
C176     C      0.164500000000     0.500000000000     0.679100000000     0          
O177     O      0.578200000000     0.000000000000     0.541400000000     0          
C178     C      0.618400000000     0.000000000000     0.579600000000     0          
C179     C      0.639600000000     0.000000000000     0.601700000000     0          
C180     C      0.723700000000     0.000000000000     0.686000000000     0          
C181     C      0.745200000000     0.000000000000     0.707500000000     0          
C182     C      0.664500000000     0.000000000000     0.679100000000     0          
O183     O      0.578200000000     0.500000000000     0.041400000000     0          
C184     C      0.618400000000     0.500000000000     0.079600000000     0          
C185     C      0.639600000000     0.500000000000     0.101700000000     0          
C186     C      0.723700000000     0.500000000000     0.186000000000     0          
C187     C      0.745200000000     0.500000000000     0.207500000000     0          
C188     C      0.664500000000     0.500000000000     0.179100000000     0          
O189     O      0.921800000000     0.000000000000     0.958600000000     0          
C190     C      0.881600000000     0.000000000000     0.920400000000     0          
C191     C      0.860400000000     0.000000000000     0.898300000000     0          
C192     C      0.776300000000     0.000000000000     0.814000000000     0          
C193     C      0.754800000000     0.000000000000     0.792500000000     0          
O194     O      0.921800000000     0.500000000000     0.458600000000     0          
C195     C      0.881600000000     0.500000000000     0.420400000000     0          
C196     C      0.860400000000     0.500000000000     0.398300000000     0          
C197     C      0.776300000000     0.500000000000     0.314000000000     0          
C198     C      0.754800000000     0.500000000000     0.292500000000     0          
O199     O      0.421800000000     0.000000000000     0.458600000000     0          
C200     C      0.381600000000     0.000000000000     0.420400000000     0          
C201     C      0.360400000000     0.000000000000     0.398300000000     0          
C202     C      0.276300000000     0.000000000000     0.314000000000     0          
C203     C      0.254800000000     0.000000000000     0.292500000000     0          
O204     O      0.421800000000     0.500000000000     0.958600000000     0          
C205     C      0.381600000000     0.500000000000     0.920400000000     0          
C206     C      0.360400000000     0.500000000000     0.898300000000     0          
C207     C      0.276300000000     0.500000000000     0.814000000000     0          
C208     C      0.254800000000     0.500000000000     0.792500000000     0          
O209     O      0.921800000000     0.000000000000     0.041400000000     0          
C210     C      0.881600000000     0.000000000000     0.079600000000     0          
C211     C      0.860400000000     0.000000000000     0.101700000000     0          
C212     C      0.776300000000     0.000000000000     0.186000000000     0          
C213     C      0.754800000000     0.000000000000     0.207500000000     0          
C214     C      0.835500000000     0.000000000000     0.179100000000     0          
O215     O      0.921800000000     0.500000000000     0.541400000000     0          
C216     C      0.881600000000     0.500000000000     0.579600000000     0          
C217     C      0.860400000000     0.500000000000     0.601700000000     0          
C218     C      0.776300000000     0.500000000000     0.686000000000     0          
C219     C      0.754800000000     0.500000000000     0.707500000000     0          
C220     C      0.835500000000     0.500000000000     0.679100000000     0          
O221     O      0.421800000000     0.000000000000     0.541400000000     0          
C222     C      0.381600000000     0.000000000000     0.579600000000     0          
C223     C      0.360400000000     0.000000000000     0.601700000000     0          
C224     C      0.276300000000     0.000000000000     0.686000000000     0          
C225     C      0.254800000000     0.000000000000     0.707500000000     0          
C226     C      0.335500000000     0.000000000000     0.679100000000     0          
O227     O      0.421800000000     0.500000000000     0.041400000000     0          
C228     C      0.381600000000     0.500000000000     0.079600000000     0          
C229     C      0.360400000000     0.500000000000     0.101700000000     0          
C230     C      0.276300000000     0.500000000000     0.186000000000     0          
C231     C      0.254800000000     0.500000000000     0.207500000000     0          
C232     C      0.335500000000     0.500000000000     0.179100000000     0          
O233     O      0.958600000000     0.078200000000     0.000000000000     0          
C234     C      0.920400000000     0.118400000000     0.000000000000     0          
C235     C      0.898300000000     0.139600000000     0.000000000000     0          
C236     C      0.814000000000     0.223700000000     0.000000000000     0          
C237     C      0.792500000000     0.245200000000     0.000000000000     0          
O238     O      0.958600000000     0.578200000000     0.500000000000     0          
C239     C      0.920400000000     0.618400000000     0.500000000000     0          
C240     C      0.898300000000     0.639600000000     0.500000000000     0          
C241     C      0.814000000000     0.723700000000     0.500000000000     0          
C242     C      0.792500000000     0.745200000000     0.500000000000     0          
O243     O      0.458600000000     0.078200000000     0.500000000000     0          
C244     C      0.420400000000     0.118400000000     0.500000000000     0          
C245     C      0.398300000000     0.139600000000     0.500000000000     0          
C246     C      0.314000000000     0.223700000000     0.500000000000     0          
C247     C      0.292500000000     0.245200000000     0.500000000000     0          
O248     O      0.458600000000     0.578200000000     0.000000000000     0          
C249     C      0.420400000000     0.618400000000     0.000000000000     0          
C250     C      0.398300000000     0.639600000000     0.000000000000     0          
C251     C      0.314000000000     0.723700000000     0.000000000000     0          
C252     C      0.292500000000     0.745200000000     0.000000000000     0          
O253     O      0.041400000000     0.078200000000     0.000000000000     0          
C254     C      0.079600000000     0.118400000000     0.000000000000     0          
C255     C      0.101700000000     0.139600000000     0.000000000000     0          
C256     C      0.186000000000     0.223700000000     0.000000000000     0          
C257     C      0.207500000000     0.245200000000     0.000000000000     0          
O258     O      0.041400000000     0.578200000000     0.500000000000     0          
C259     C      0.079600000000     0.618400000000     0.500000000000     0          
C260     C      0.101700000000     0.639600000000     0.500000000000     0          
C261     C      0.186000000000     0.723700000000     0.500000000000     0          
C262     C      0.207500000000     0.745200000000     0.500000000000     0          
O263     O      0.541400000000     0.078200000000     0.500000000000     0          
C264     C      0.579600000000     0.118400000000     0.500000000000     0          
C265     C      0.601700000000     0.139600000000     0.500000000000     0          
C266     C      0.686000000000     0.223700000000     0.500000000000     0          
C267     C      0.707500000000     0.245200000000     0.500000000000     0          
O268     O      0.541400000000     0.578200000000     0.000000000000     0          
C269     C      0.579600000000     0.618400000000     0.000000000000     0          
C270     C      0.601700000000     0.639600000000     0.000000000000     0          
C271     C      0.686000000000     0.723700000000     0.000000000000     0          
C272     C      0.707500000000     0.745200000000     0.000000000000     0          
O273     O      0.958600000000     0.921800000000     0.000000000000     0          
C274     C      0.920400000000     0.881600000000     0.000000000000     0          
C275     C      0.898300000000     0.860400000000     0.000000000000     0          
C276     C      0.814000000000     0.776300000000     0.000000000000     0          
C277     C      0.792500000000     0.754800000000     0.000000000000     0          
C278     C      0.820900000000     0.835500000000     0.000000000000     0          
O279     O      0.958600000000     0.421800000000     0.500000000000     0          
C280     C      0.920400000000     0.381600000000     0.500000000000     0          
C281     C      0.898300000000     0.360400000000     0.500000000000     0          
C282     C      0.814000000000     0.276300000000     0.500000000000     0          
C283     C      0.792500000000     0.254800000000     0.500000000000     0          
C284     C      0.820900000000     0.335500000000     0.500000000000     0          
O285     O      0.458600000000     0.921800000000     0.500000000000     0          
C286     C      0.420400000000     0.881600000000     0.500000000000     0          
C287     C      0.398300000000     0.860400000000     0.500000000000     0          
C288     C      0.314000000000     0.776300000000     0.500000000000     0          
C289     C      0.292500000000     0.754800000000     0.500000000000     0          
C290     C      0.320900000000     0.835500000000     0.500000000000     0          
O291     O      0.458600000000     0.421800000000     0.000000000000     0          
C292     C      0.420400000000     0.381600000000     0.000000000000     0          
C293     C      0.398300000000     0.360400000000     0.000000000000     0          
C294     C      0.314000000000     0.276300000000     0.000000000000     0          
C295     C      0.292500000000     0.254800000000     0.000000000000     0          
C296     C      0.320900000000     0.335500000000     0.000000000000     0          
O297     O      0.041400000000     0.921800000000     0.000000000000     0          
C298     C      0.079600000000     0.881600000000     0.000000000000     0          
C299     C      0.101700000000     0.860400000000     0.000000000000     0          
C300     C      0.186000000000     0.776300000000     0.000000000000     0          
C301     C      0.207500000000     0.754800000000     0.000000000000     0          
C302     C      0.179100000000     0.835500000000     0.000000000000     0          
O303     O      0.041400000000     0.421800000000     0.500000000000     0          
C304     C      0.079600000000     0.381600000000     0.500000000000     0          
C305     C      0.101700000000     0.360400000000     0.500000000000     0          
C306     C      0.186000000000     0.276300000000     0.500000000000     0          
C307     C      0.207500000000     0.254800000000     0.500000000000     0          
C308     C      0.179100000000     0.335500000000     0.500000000000     0          
O309     O      0.541400000000     0.921800000000     0.500000000000     0          
C310     C      0.579600000000     0.881600000000     0.500000000000     0          
C311     C      0.601700000000     0.860400000000     0.500000000000     0          
C312     C      0.686000000000     0.776300000000     0.500000000000     0          
C313     C      0.707500000000     0.754800000000     0.500000000000     0          
C314     C      0.679100000000     0.835500000000     0.500000000000     0          
O315     O      0.541400000000     0.421800000000     0.000000000000     0          
C316     C      0.579600000000     0.381600000000     0.000000000000     0          
C317     C      0.601700000000     0.360400000000     0.000000000000     0          
C318     C      0.686000000000     0.276300000000     0.000000000000     0          
C319     C      0.707500000000     0.254800000000     0.000000000000     0          
C320     C      0.679100000000     0.335500000000     0.000000000000     0          
O321     O      0.958600000000     0.000000000000     0.921800000000     0          
C322     C      0.920400000000     0.000000000000     0.881600000000     0          
C323     C      0.898300000000     0.000000000000     0.860400000000     0          
C324     C      0.814000000000     0.000000000000     0.776300000000     0          
C325     C      0.792500000000     0.000000000000     0.754800000000     0          
C326     C      0.820900000000     0.000000000000     0.835500000000     0          
O327     O      0.958600000000     0.500000000000     0.421800000000     0          
C328     C      0.920400000000     0.500000000000     0.381600000000     0          
C329     C      0.898300000000     0.500000000000     0.360400000000     0          
C330     C      0.814000000000     0.500000000000     0.276300000000     0          
C331     C      0.792500000000     0.500000000000     0.254800000000     0          
C332     C      0.820900000000     0.500000000000     0.335500000000     0          
O333     O      0.458600000000     0.000000000000     0.421800000000     0          
C334     C      0.420400000000     0.000000000000     0.381600000000     0          
C335     C      0.398300000000     0.000000000000     0.360400000000     0          
C336     C      0.314000000000     0.000000000000     0.276300000000     0          
C337     C      0.292500000000     0.000000000000     0.254800000000     0          
C338     C      0.320900000000     0.000000000000     0.335500000000     0          
O339     O      0.458600000000     0.500000000000     0.921800000000     0          
C340     C      0.420400000000     0.500000000000     0.881600000000     0          
C341     C      0.398300000000     0.500000000000     0.860400000000     0          
C342     C      0.314000000000     0.500000000000     0.776300000000     0          
C343     C      0.292500000000     0.500000000000     0.754800000000     0          
C344     C      0.320900000000     0.500000000000     0.835500000000     0          
O345     O      0.041400000000     0.000000000000     0.921800000000     0          
C346     C      0.079600000000     0.000000000000     0.881600000000     0          
C347     C      0.101700000000     0.000000000000     0.860400000000     0          
C348     C      0.186000000000     0.000000000000     0.776300000000     0          
C349     C      0.207500000000     0.000000000000     0.754800000000     0          
C350     C      0.179100000000     0.000000000000     0.835500000000     0          
O351     O      0.041400000000     0.500000000000     0.421800000000     0          
C352     C      0.079600000000     0.500000000000     0.381600000000     0          
C353     C      0.101700000000     0.500000000000     0.360400000000     0          
C354     C      0.186000000000     0.500000000000     0.276300000000     0          
C355     C      0.207500000000     0.500000000000     0.254800000000     0          
C356     C      0.179100000000     0.500000000000     0.335500000000     0          
O357     O      0.541400000000     0.000000000000     0.421800000000     0          
C358     C      0.579600000000     0.000000000000     0.381600000000     0          
C359     C      0.601700000000     0.000000000000     0.360400000000     0          
C360     C      0.686000000000     0.000000000000     0.276300000000     0          
C361     C      0.707500000000     0.000000000000     0.254800000000     0          
C362     C      0.679100000000     0.000000000000     0.335500000000     0          
O363     O      0.541400000000     0.500000000000     0.921800000000     0          
C364     C      0.579600000000     0.500000000000     0.881600000000     0          
C365     C      0.601700000000     0.500000000000     0.860400000000     0          
C366     C      0.686000000000     0.500000000000     0.776300000000     0          
C367     C      0.707500000000     0.500000000000     0.754800000000     0          
C368     C      0.679100000000     0.500000000000     0.835500000000     0          
O369     O      0.958600000000     0.000000000000     0.078200000000     0          
C370     C      0.920400000000     0.000000000000     0.118400000000     0          
C371     C      0.898300000000     0.000000000000     0.139600000000     0          
C372     C      0.814000000000     0.000000000000     0.223700000000     0          
C373     C      0.792500000000     0.000000000000     0.245200000000     0          
O374     O      0.958600000000     0.500000000000     0.578200000000     0          
C375     C      0.920400000000     0.500000000000     0.618400000000     0          
C376     C      0.898300000000     0.500000000000     0.639600000000     0          
C377     C      0.814000000000     0.500000000000     0.723700000000     0          
C378     C      0.792500000000     0.500000000000     0.745200000000     0          
O379     O      0.458600000000     0.000000000000     0.578200000000     0          
C380     C      0.420400000000     0.000000000000     0.618400000000     0          
C381     C      0.398300000000     0.000000000000     0.639600000000     0          
C382     C      0.314000000000     0.000000000000     0.723700000000     0          
C383     C      0.292500000000     0.000000000000     0.745200000000     0          
O384     O      0.458600000000     0.500000000000     0.078200000000     0          
C385     C      0.420400000000     0.500000000000     0.118400000000     0          
C386     C      0.398300000000     0.500000000000     0.139600000000     0          
C387     C      0.314000000000     0.500000000000     0.223700000000     0          
C388     C      0.292500000000     0.500000000000     0.245200000000     0          
O389     O      0.041400000000     0.000000000000     0.078200000000     0          
C390     C      0.079600000000     0.000000000000     0.118400000000     0          
C391     C      0.101700000000     0.000000000000     0.139600000000     0          
C392     C      0.186000000000     0.000000000000     0.223700000000     0          
C393     C      0.207500000000     0.000000000000     0.245200000000     0          
O394     O      0.041400000000     0.500000000000     0.578200000000     0          
C395     C      0.079600000000     0.500000000000     0.618400000000     0          
C396     C      0.101700000000     0.500000000000     0.639600000000     0          
C397     C      0.186000000000     0.500000000000     0.723700000000     0          
C398     C      0.207500000000     0.500000000000     0.745200000000     0          
O399     O      0.541400000000     0.000000000000     0.578200000000     0          
C400     C      0.579600000000     0.000000000000     0.618400000000     0          
C401     C      0.601700000000     0.000000000000     0.639600000000     0          
C402     C      0.686000000000     0.000000000000     0.723700000000     0          
C403     C      0.707500000000     0.000000000000     0.745200000000     0          
O404     O      0.541400000000     0.500000000000     0.078200000000     0          
C405     C      0.579600000000     0.500000000000     0.118400000000     0          
C406     C      0.601700000000     0.500000000000     0.139600000000     0          
C407     C      0.686000000000     0.500000000000     0.223700000000     0          
C408     C      0.707500000000     0.500000000000     0.245200000000     0          
O409     O      0.000000000000     0.078200000000     0.041400000000     0          
C410     C      0.000000000000     0.118400000000     0.079600000000     0          
C411     C      0.000000000000     0.139600000000     0.101700000000     0          
C412     C      0.000000000000     0.223700000000     0.186000000000     0          
C413     C      0.000000000000     0.245200000000     0.207500000000     0          
O414     O      0.000000000000     0.578200000000     0.541400000000     0          
C415     C      0.000000000000     0.618400000000     0.579600000000     0          
C416     C      0.000000000000     0.639600000000     0.601700000000     0          
C417     C      0.000000000000     0.723700000000     0.686000000000     0          
C418     C      0.000000000000     0.745200000000     0.707500000000     0          
O419     O      0.500000000000     0.078200000000     0.541400000000     0          
C420     C      0.500000000000     0.118400000000     0.579600000000     0          
C421     C      0.500000000000     0.139600000000     0.601700000000     0          
C422     C      0.500000000000     0.223700000000     0.686000000000     0          
C423     C      0.500000000000     0.245200000000     0.707500000000     0          
O424     O      0.500000000000     0.578200000000     0.041400000000     0          
C425     C      0.500000000000     0.618400000000     0.079600000000     0          
C426     C      0.500000000000     0.639600000000     0.101700000000     0          
C427     C      0.500000000000     0.723700000000     0.186000000000     0          
C428     C      0.500000000000     0.745200000000     0.207500000000     0          
O429     O      0.000000000000     0.078200000000     0.958600000000     0          
C430     C      0.000000000000     0.118400000000     0.920400000000     0          
C431     C      0.000000000000     0.139600000000     0.898300000000     0          
C432     C      0.000000000000     0.223700000000     0.814000000000     0          
C433     C      0.000000000000     0.245200000000     0.792500000000     0          
O434     O      0.000000000000     0.578200000000     0.458600000000     0          
C435     C      0.000000000000     0.618400000000     0.420400000000     0          
C436     C      0.000000000000     0.639600000000     0.398300000000     0          
C437     C      0.000000000000     0.723700000000     0.314000000000     0          
C438     C      0.000000000000     0.745200000000     0.292500000000     0          
O439     O      0.500000000000     0.078200000000     0.458600000000     0          
C440     C      0.500000000000     0.118400000000     0.420400000000     0          
C441     C      0.500000000000     0.139600000000     0.398300000000     0          
C442     C      0.500000000000     0.223700000000     0.314000000000     0          
C443     C      0.500000000000     0.245200000000     0.292500000000     0          
O444     O      0.500000000000     0.578200000000     0.958600000000     0          
C445     C      0.500000000000     0.618400000000     0.920400000000     0          
C446     C      0.500000000000     0.639600000000     0.898300000000     0          
C447     C      0.500000000000     0.723700000000     0.814000000000     0          
C448     C      0.500000000000     0.745200000000     0.792500000000     0          
O449     O      0.000000000000     0.921800000000     0.041400000000     0          
C450     C      0.000000000000     0.881600000000     0.079600000000     0          
C451     C      0.000000000000     0.860400000000     0.101700000000     0          
C452     C      0.000000000000     0.776300000000     0.186000000000     0          
C453     C      0.000000000000     0.754800000000     0.207500000000     0          
C454     C      0.000000000000     0.835500000000     0.179100000000     0          
O455     O      0.000000000000     0.421800000000     0.541400000000     0          
C456     C      0.000000000000     0.381600000000     0.579600000000     0          
C457     C      0.000000000000     0.360400000000     0.601700000000     0          
C458     C      0.000000000000     0.276300000000     0.686000000000     0          
C459     C      0.000000000000     0.254800000000     0.707500000000     0          
C460     C      0.000000000000     0.335500000000     0.679100000000     0          
O461     O      0.500000000000     0.921800000000     0.541400000000     0          
C462     C      0.500000000000     0.881600000000     0.579600000000     0          
C463     C      0.500000000000     0.860400000000     0.601700000000     0          
C464     C      0.500000000000     0.776300000000     0.686000000000     0          
C465     C      0.500000000000     0.754800000000     0.707500000000     0          
C466     C      0.500000000000     0.835500000000     0.679100000000     0          
O467     O      0.500000000000     0.421800000000     0.041400000000     0          
C468     C      0.500000000000     0.381600000000     0.079600000000     0          
C469     C      0.500000000000     0.360400000000     0.101700000000     0          
C470     C      0.500000000000     0.276300000000     0.186000000000     0          
C471     C      0.500000000000     0.254800000000     0.207500000000     0          
C472     C      0.500000000000     0.335500000000     0.179100000000     0          
O473     O      0.000000000000     0.921800000000     0.958600000000     0          
C474     C      0.000000000000     0.881600000000     0.920400000000     0          
C475     C      0.000000000000     0.860400000000     0.898300000000     0          
C476     C      0.000000000000     0.776300000000     0.814000000000     0          
C477     C      0.000000000000     0.754800000000     0.792500000000     0          
C478     C      0.000000000000     0.835500000000     0.820900000000     0          
O479     O      0.000000000000     0.421800000000     0.458600000000     0          
C480     C      0.000000000000     0.381600000000     0.420400000000     0          
C481     C      0.000000000000     0.360400000000     0.398300000000     0          
C482     C      0.000000000000     0.276300000000     0.314000000000     0          
C483     C      0.000000000000     0.254800000000     0.292500000000     0          
C484     C      0.000000000000     0.335500000000     0.320900000000     0          
O485     O      0.500000000000     0.921800000000     0.458600000000     0          
C486     C      0.500000000000     0.881600000000     0.420400000000     0          
C487     C      0.500000000000     0.860400000000     0.398300000000     0          
C488     C      0.500000000000     0.776300000000     0.314000000000     0          
C489     C      0.500000000000     0.754800000000     0.292500000000     0          
C490     C      0.500000000000     0.835500000000     0.320900000000     0          
O491     O      0.500000000000     0.421800000000     0.958600000000     0          
C492     C      0.500000000000     0.381600000000     0.920400000000     0          
C493     C      0.500000000000     0.360400000000     0.898300000000     0          
C494     C      0.500000000000     0.276300000000     0.814000000000     0          
C495     C      0.500000000000     0.254800000000     0.792500000000     0          
C496     C      0.500000000000     0.335500000000     0.820900000000     0          
O497     O      0.078200000000     0.958600000000     0.000000000000     0          
C498     C      0.118400000000     0.920400000000     0.000000000000     0          
C499     C      0.139600000000     0.898300000000     0.000000000000     0          
C500     C      0.223700000000     0.814000000000     0.000000000000     0          
C501     C      0.245200000000     0.792500000000     0.000000000000     0          
O502     O      0.078200000000     0.458600000000     0.500000000000     0          
C503     C      0.118400000000     0.420400000000     0.500000000000     0          
C504     C      0.139600000000     0.398300000000     0.500000000000     0          
C505     C      0.223700000000     0.314000000000     0.500000000000     0          
C506     C      0.245200000000     0.292500000000     0.500000000000     0          
O507     O      0.578200000000     0.958600000000     0.500000000000     0          
C508     C      0.618400000000     0.920400000000     0.500000000000     0          
C509     C      0.639600000000     0.898300000000     0.500000000000     0          
C510     C      0.723700000000     0.814000000000     0.500000000000     0          
C511     C      0.745200000000     0.792500000000     0.500000000000     0          
O512     O      0.578200000000     0.458600000000     0.000000000000     0          
C513     C      0.618400000000     0.420400000000     0.000000000000     0          
C514     C      0.639600000000     0.398300000000     0.000000000000     0          
C515     C      0.723700000000     0.314000000000     0.000000000000     0          
C516     C      0.745200000000     0.292500000000     0.000000000000     0          
O517     O      0.078200000000     0.041400000000     0.000000000000     0          
C518     C      0.118400000000     0.079600000000     0.000000000000     0          
C519     C      0.139600000000     0.101700000000     0.000000000000     0          
C520     C      0.223700000000     0.186000000000     0.000000000000     0          
C521     C      0.245200000000     0.207500000000     0.000000000000     0          
C522     C      0.164500000000     0.179100000000     0.000000000000     0          
O523     O      0.078200000000     0.541400000000     0.500000000000     0          
C524     C      0.118400000000     0.579600000000     0.500000000000     0          
C525     C      0.139600000000     0.601700000000     0.500000000000     0          
C526     C      0.223700000000     0.686000000000     0.500000000000     0          
C527     C      0.245200000000     0.707500000000     0.500000000000     0          
C528     C      0.164500000000     0.679100000000     0.500000000000     0          
O529     O      0.578200000000     0.041400000000     0.500000000000     0          
C530     C      0.618400000000     0.079600000000     0.500000000000     0          
C531     C      0.639600000000     0.101700000000     0.500000000000     0          
C532     C      0.723700000000     0.186000000000     0.500000000000     0          
C533     C      0.745200000000     0.207500000000     0.500000000000     0          
C534     C      0.664500000000     0.179100000000     0.500000000000     0          
O535     O      0.578200000000     0.541400000000     0.000000000000     0          
C536     C      0.618400000000     0.579600000000     0.000000000000     0          
C537     C      0.639600000000     0.601700000000     0.000000000000     0          
C538     C      0.723700000000     0.686000000000     0.000000000000     0          
C539     C      0.745200000000     0.707500000000     0.000000000000     0          
C540     C      0.664500000000     0.679100000000     0.000000000000     0          
O541     O      0.921800000000     0.958600000000     0.000000000000     0          
C542     C      0.881600000000     0.920400000000     0.000000000000     0          
C543     C      0.860400000000     0.898300000000     0.000000000000     0          
C544     C      0.776300000000     0.814000000000     0.000000000000     0          
C545     C      0.754800000000     0.792500000000     0.000000000000     0          
O546     O      0.921800000000     0.458600000000     0.500000000000     0          
C547     C      0.881600000000     0.420400000000     0.500000000000     0          
C548     C      0.860400000000     0.398300000000     0.500000000000     0          
C549     C      0.776300000000     0.314000000000     0.500000000000     0          
C550     C      0.754800000000     0.292500000000     0.500000000000     0          
O551     O      0.421800000000     0.958600000000     0.500000000000     0          
C552     C      0.381600000000     0.920400000000     0.500000000000     0          
C553     C      0.360400000000     0.898300000000     0.500000000000     0          
C554     C      0.276300000000     0.814000000000     0.500000000000     0          
C555     C      0.254800000000     0.792500000000     0.500000000000     0          
O556     O      0.421800000000     0.458600000000     0.000000000000     0          
C557     C      0.381600000000     0.420400000000     0.000000000000     0          
C558     C      0.360400000000     0.398300000000     0.000000000000     0          
C559     C      0.276300000000     0.314000000000     0.000000000000     0          
C560     C      0.254800000000     0.292500000000     0.000000000000     0          
O561     O      0.921800000000     0.041400000000     0.000000000000     0          
C562     C      0.881600000000     0.079600000000     0.000000000000     0          
C563     C      0.860400000000     0.101700000000     0.000000000000     0          
C564     C      0.776300000000     0.186000000000     0.000000000000     0          
C565     C      0.754800000000     0.207500000000     0.000000000000     0          
C566     C      0.835500000000     0.179100000000     0.000000000000     0          
O567     O      0.921800000000     0.541400000000     0.500000000000     0          
C568     C      0.881600000000     0.579600000000     0.500000000000     0          
C569     C      0.860400000000     0.601700000000     0.500000000000     0          
C570     C      0.776300000000     0.686000000000     0.500000000000     0          
C571     C      0.754800000000     0.707500000000     0.500000000000     0          
C572     C      0.835500000000     0.679100000000     0.500000000000     0          
O573     O      0.421800000000     0.041400000000     0.500000000000     0          
C574     C      0.381600000000     0.079600000000     0.500000000000     0          
C575     C      0.360400000000     0.101700000000     0.500000000000     0          
C576     C      0.276300000000     0.186000000000     0.500000000000     0          
C577     C      0.254800000000     0.207500000000     0.500000000000     0          
C578     C      0.335500000000     0.179100000000     0.500000000000     0          
O579     O      0.421800000000     0.541400000000     0.000000000000     0          
C580     C      0.381600000000     0.579600000000     0.000000000000     0          
C581     C      0.360400000000     0.601700000000     0.000000000000     0          
C582     C      0.276300000000     0.686000000000     0.000000000000     0          
C583     C      0.254800000000     0.707500000000     0.000000000000     0          
C584     C      0.335500000000     0.679100000000     0.000000000000     0          
C585     C      0.000000000000     0.932600000000     0.067400000000     0          
C586     C      0.000000000000     0.910900000000     0.089100000000     0          
C587     C      0.000000000000     0.868700000000     0.131300000000     0          
C588     C      0.000000000000     0.763100000000     0.236900000000     0          
C589     C      0.000000000000     0.805800000000     0.194200000000     0          
C590     C      0.000000000000     0.845100000000     0.154900000000     0          
C591     C      0.000000000000     0.432600000000     0.567400000000     0          
C592     C      0.000000000000     0.410900000000     0.589100000000     0          
C593     C      0.000000000000     0.368700000000     0.631300000000     0          
C594     C      0.000000000000     0.263100000000     0.736900000000     0          
C595     C      0.000000000000     0.305800000000     0.694200000000     0          
C596     C      0.000000000000     0.345100000000     0.654900000000     0          
C597     C      0.500000000000     0.932600000000     0.567400000000     0          
C598     C      0.500000000000     0.910900000000     0.589100000000     0          
C599     C      0.500000000000     0.868700000000     0.631300000000     0          
C600     C      0.500000000000     0.763100000000     0.736900000000     0          
C601     C      0.500000000000     0.805800000000     0.694200000000     0          
C602     C      0.500000000000     0.845100000000     0.654900000000     0          
C603     C      0.500000000000     0.432600000000     0.067400000000     0          
C604     C      0.500000000000     0.410900000000     0.089100000000     0          
C605     C      0.500000000000     0.368700000000     0.131300000000     0          
C606     C      0.500000000000     0.263100000000     0.236900000000     0          
C607     C      0.500000000000     0.305800000000     0.194200000000     0          
C608     C      0.500000000000     0.345100000000     0.154900000000     0          
C609     C      0.000000000000     0.067400000000     0.067400000000     0          
C610     C      0.000000000000     0.089100000000     0.089100000000     0          
C611     C      0.000000000000     0.131300000000     0.131300000000     0          
C612     C      0.000000000000     0.236900000000     0.236900000000     0          
C613     C      0.000000000000     0.194200000000     0.194200000000     0          
C614     C      0.000000000000     0.154900000000     0.154900000000     0          
C615     C      0.000000000000     0.567400000000     0.567400000000     0          
C616     C      0.000000000000     0.589100000000     0.589100000000     0          
C617     C      0.000000000000     0.631300000000     0.631300000000     0          
C618     C      0.000000000000     0.736900000000     0.736900000000     0          
C619     C      0.000000000000     0.694200000000     0.694200000000     0          
C620     C      0.000000000000     0.654900000000     0.654900000000     0          
C621     C      0.500000000000     0.067400000000     0.567400000000     0          
C622     C      0.500000000000     0.089100000000     0.589100000000     0          
C623     C      0.500000000000     0.131300000000     0.631300000000     0          
C624     C      0.500000000000     0.236900000000     0.736900000000     0          
C625     C      0.500000000000     0.194200000000     0.694200000000     0          
C626     C      0.500000000000     0.154900000000     0.654900000000     0          
C627     C      0.500000000000     0.567400000000     0.067400000000     0          
C628     C      0.500000000000     0.589100000000     0.089100000000     0          
C629     C      0.500000000000     0.631300000000     0.131300000000     0          
C630     C      0.500000000000     0.736900000000     0.236900000000     0          
C631     C      0.500000000000     0.694200000000     0.194200000000     0          
C632     C      0.500000000000     0.654900000000     0.154900000000     0          
C633     C      0.000000000000     0.932600000000     0.932600000000     0          
C634     C      0.000000000000     0.910900000000     0.910900000000     0          
C635     C      0.000000000000     0.868700000000     0.868700000000     0          
C636     C      0.000000000000     0.763100000000     0.763100000000     0          
C637     C      0.000000000000     0.805800000000     0.805800000000     0          
C638     C      0.000000000000     0.845100000000     0.845100000000     0          
C639     C      0.000000000000     0.432600000000     0.432600000000     0          
C640     C      0.000000000000     0.410900000000     0.410900000000     0          
C641     C      0.000000000000     0.368700000000     0.368700000000     0          
C642     C      0.000000000000     0.263100000000     0.263100000000     0          
C643     C      0.000000000000     0.305800000000     0.305800000000     0          
C644     C      0.000000000000     0.345100000000     0.345100000000     0          
C645     C      0.500000000000     0.932600000000     0.432600000000     0          
C646     C      0.500000000000     0.910900000000     0.410900000000     0          
C647     C      0.500000000000     0.868700000000     0.368700000000     0          
C648     C      0.500000000000     0.763100000000     0.263100000000     0          
C649     C      0.500000000000     0.805800000000     0.305800000000     0          
C650     C      0.500000000000     0.845100000000     0.345100000000     0          
C651     C      0.500000000000     0.432600000000     0.932600000000     0          
C652     C      0.500000000000     0.410900000000     0.910900000000     0          
C653     C      0.500000000000     0.368700000000     0.868700000000     0          
C654     C      0.500000000000     0.263100000000     0.763100000000     0          
C655     C      0.500000000000     0.305800000000     0.805800000000     0          
C656     C      0.500000000000     0.345100000000     0.845100000000     0          
C657     C      0.000000000000     0.067400000000     0.932600000000     0          
C658     C      0.000000000000     0.089100000000     0.910900000000     0          
C659     C      0.000000000000     0.131300000000     0.868700000000     0          
C660     C      0.000000000000     0.236900000000     0.763100000000     0          
C661     C      0.000000000000     0.194200000000     0.805800000000     0          
C662     C      0.000000000000     0.154900000000     0.845100000000     0          
C663     C      0.000000000000     0.567400000000     0.432600000000     0          
C664     C      0.000000000000     0.589100000000     0.410900000000     0          
C665     C      0.000000000000     0.631300000000     0.368700000000     0          
C666     C      0.000000000000     0.736900000000     0.263100000000     0          
C667     C      0.000000000000     0.694200000000     0.305800000000     0          
C668     C      0.000000000000     0.654900000000     0.345100000000     0          
C669     C      0.500000000000     0.067400000000     0.432600000000     0          
C670     C      0.500000000000     0.089100000000     0.410900000000     0          
C671     C      0.500000000000     0.131300000000     0.368700000000     0          
C672     C      0.500000000000     0.236900000000     0.263100000000     0          
C673     C      0.500000000000     0.194200000000     0.305800000000     0          
C674     C      0.500000000000     0.154900000000     0.345100000000     0          
C675     C      0.500000000000     0.567400000000     0.932600000000     0          
C676     C      0.500000000000     0.589100000000     0.910900000000     0          
C677     C      0.500000000000     0.631300000000     0.868700000000     0          
C678     C      0.500000000000     0.736900000000     0.763100000000     0          
C679     C      0.500000000000     0.694200000000     0.805800000000     0          
C680     C      0.500000000000     0.654900000000     0.845100000000     0          
C681     C      0.067400000000     0.000000000000     0.932600000000     0          
C682     C      0.089100000000     0.000000000000     0.910900000000     0          
C683     C      0.131300000000     0.000000000000     0.868700000000     0          
C684     C      0.236900000000     0.000000000000     0.763100000000     0          
C685     C      0.194200000000     0.000000000000     0.805800000000     0          
C686     C      0.154900000000     0.000000000000     0.845100000000     0          
C687     C      0.067400000000     0.500000000000     0.432600000000     0          
C688     C      0.089100000000     0.500000000000     0.410900000000     0          
C689     C      0.131300000000     0.500000000000     0.368700000000     0          
C690     C      0.236900000000     0.500000000000     0.263100000000     0          
C691     C      0.194200000000     0.500000000000     0.305800000000     0          
C692     C      0.154900000000     0.500000000000     0.345100000000     0          
C693     C      0.567400000000     0.000000000000     0.432600000000     0          
C694     C      0.589100000000     0.000000000000     0.410900000000     0          
C695     C      0.631300000000     0.000000000000     0.368700000000     0          
C696     C      0.736900000000     0.000000000000     0.263100000000     0          
C697     C      0.694200000000     0.000000000000     0.305800000000     0          
C698     C      0.654900000000     0.000000000000     0.345100000000     0          
C699     C      0.567400000000     0.500000000000     0.932600000000     0          
C700     C      0.589100000000     0.500000000000     0.910900000000     0          
C701     C      0.631300000000     0.500000000000     0.868700000000     0          
C702     C      0.736900000000     0.500000000000     0.763100000000     0          
C703     C      0.694200000000     0.500000000000     0.805800000000     0          
C704     C      0.654900000000     0.500000000000     0.845100000000     0          
C705     C      0.067400000000     0.000000000000     0.067400000000     0          
C706     C      0.089100000000     0.000000000000     0.089100000000     0          
C707     C      0.131300000000     0.000000000000     0.131300000000     0          
C708     C      0.236900000000     0.000000000000     0.236900000000     0          
C709     C      0.194200000000     0.000000000000     0.194200000000     0          
C710     C      0.154900000000     0.000000000000     0.154900000000     0          
C711     C      0.067400000000     0.500000000000     0.567400000000     0          
C712     C      0.089100000000     0.500000000000     0.589100000000     0          
C713     C      0.131300000000     0.500000000000     0.631300000000     0          
C714     C      0.236900000000     0.500000000000     0.736900000000     0          
C715     C      0.194200000000     0.500000000000     0.694200000000     0          
C716     C      0.154900000000     0.500000000000     0.654900000000     0          
C717     C      0.567400000000     0.000000000000     0.567400000000     0          
C718     C      0.589100000000     0.000000000000     0.589100000000     0          
C719     C      0.631300000000     0.000000000000     0.631300000000     0          
C720     C      0.736900000000     0.000000000000     0.736900000000     0          
C721     C      0.694200000000     0.000000000000     0.694200000000     0          
C722     C      0.654900000000     0.000000000000     0.654900000000     0          
C723     C      0.567400000000     0.500000000000     0.067400000000     0          
C724     C      0.589100000000     0.500000000000     0.089100000000     0          
C725     C      0.631300000000     0.500000000000     0.131300000000     0          
C726     C      0.736900000000     0.500000000000     0.236900000000     0          
C727     C      0.694200000000     0.500000000000     0.194200000000     0          
C728     C      0.654900000000     0.500000000000     0.154900000000     0          
C729     C      0.932600000000     0.000000000000     0.932600000000     0          
C730     C      0.910900000000     0.000000000000     0.910900000000     0          
C731     C      0.868700000000     0.000000000000     0.868700000000     0          
C732     C      0.763100000000     0.000000000000     0.763100000000     0          
C733     C      0.805800000000     0.000000000000     0.805800000000     0          
C734     C      0.845100000000     0.000000000000     0.845100000000     0          
C735     C      0.932600000000     0.500000000000     0.432600000000     0          
C736     C      0.910900000000     0.500000000000     0.410900000000     0          
C737     C      0.868700000000     0.500000000000     0.368700000000     0          
C738     C      0.763100000000     0.500000000000     0.263100000000     0          
C739     C      0.805800000000     0.500000000000     0.305800000000     0          
C740     C      0.845100000000     0.500000000000     0.345100000000     0          
C741     C      0.432600000000     0.000000000000     0.432600000000     0          
C742     C      0.410900000000     0.000000000000     0.410900000000     0          
C743     C      0.368700000000     0.000000000000     0.368700000000     0          
C744     C      0.263100000000     0.000000000000     0.263100000000     0          
C745     C      0.305800000000     0.000000000000     0.305800000000     0          
C746     C      0.345100000000     0.000000000000     0.345100000000     0          
C747     C      0.432600000000     0.500000000000     0.932600000000     0          
C748     C      0.410900000000     0.500000000000     0.910900000000     0          
C749     C      0.368700000000     0.500000000000     0.868700000000     0          
C750     C      0.263100000000     0.500000000000     0.763100000000     0          
C751     C      0.305800000000     0.500000000000     0.805800000000     0          
C752     C      0.345100000000     0.500000000000     0.845100000000     0          
C753     C      0.932600000000     0.000000000000     0.067400000000     0          
C754     C      0.910900000000     0.000000000000     0.089100000000     0          
C755     C      0.868700000000     0.000000000000     0.131300000000     0          
C756     C      0.763100000000     0.000000000000     0.236900000000     0          
C757     C      0.805800000000     0.000000000000     0.194200000000     0          
C758     C      0.845100000000     0.000000000000     0.154900000000     0          
C759     C      0.932600000000     0.500000000000     0.567400000000     0          
C760     C      0.910900000000     0.500000000000     0.589100000000     0          
C761     C      0.868700000000     0.500000000000     0.631300000000     0          
C762     C      0.763100000000     0.500000000000     0.736900000000     0          
C763     C      0.805800000000     0.500000000000     0.694200000000     0          
C764     C      0.845100000000     0.500000000000     0.654900000000     0          
C765     C      0.432600000000     0.000000000000     0.567400000000     0          
C766     C      0.410900000000     0.000000000000     0.589100000000     0          
C767     C      0.368700000000     0.000000000000     0.631300000000     0          
C768     C      0.263100000000     0.000000000000     0.736900000000     0          
C769     C      0.305800000000     0.000000000000     0.694200000000     0          
C770     C      0.345100000000     0.000000000000     0.654900000000     0          
C771     C      0.432600000000     0.500000000000     0.067400000000     0          
C772     C      0.410900000000     0.500000000000     0.089100000000     0          
C773     C      0.368700000000     0.500000000000     0.131300000000     0          
C774     C      0.263100000000     0.500000000000     0.236900000000     0          
C775     C      0.305800000000     0.500000000000     0.194200000000     0          
C776     C      0.345100000000     0.500000000000     0.154900000000     0          
C777     C      0.932600000000     0.067400000000     0.000000000000     0          
C778     C      0.910900000000     0.089100000000     0.000000000000     0          
C779     C      0.868700000000     0.131300000000     0.000000000000     0          
C780     C      0.763100000000     0.236900000000     0.000000000000     0          
C781     C      0.805800000000     0.194200000000     0.000000000000     0          
C782     C      0.845100000000     0.154900000000     0.000000000000     0          
C783     C      0.932600000000     0.567400000000     0.500000000000     0          
C784     C      0.910900000000     0.589100000000     0.500000000000     0          
C785     C      0.868700000000     0.631300000000     0.500000000000     0          
C786     C      0.763100000000     0.736900000000     0.500000000000     0          
C787     C      0.805800000000     0.694200000000     0.500000000000     0          
C788     C      0.845100000000     0.654900000000     0.500000000000     0          
C789     C      0.432600000000     0.067400000000     0.500000000000     0          
C790     C      0.410900000000     0.089100000000     0.500000000000     0          
C791     C      0.368700000000     0.131300000000     0.500000000000     0          
C792     C      0.263100000000     0.236900000000     0.500000000000     0          
C793     C      0.305800000000     0.194200000000     0.500000000000     0          
C794     C      0.345100000000     0.154900000000     0.500000000000     0          
C795     C      0.432600000000     0.567400000000     0.000000000000     0          
C796     C      0.410900000000     0.589100000000     0.000000000000     0          
C797     C      0.368700000000     0.631300000000     0.000000000000     0          
C798     C      0.263100000000     0.736900000000     0.000000000000     0          
C799     C      0.305800000000     0.694200000000     0.000000000000     0          
C800     C      0.345100000000     0.654900000000     0.000000000000     0          
C801     C      0.067400000000     0.067400000000     0.000000000000     0          
C802     C      0.089100000000     0.089100000000     0.000000000000     0          
C803     C      0.131300000000     0.131300000000     0.000000000000     0          
C804     C      0.236900000000     0.236900000000     0.000000000000     0          
C805     C      0.194200000000     0.194200000000     0.000000000000     0          
C806     C      0.154900000000     0.154900000000     0.000000000000     0          
C807     C      0.067400000000     0.567400000000     0.500000000000     0          
C808     C      0.089100000000     0.589100000000     0.500000000000     0          
C809     C      0.131300000000     0.631300000000     0.500000000000     0          
C810     C      0.236900000000     0.736900000000     0.500000000000     0          
C811     C      0.194200000000     0.694200000000     0.500000000000     0          
C812     C      0.154900000000     0.654900000000     0.500000000000     0          
C813     C      0.567400000000     0.067400000000     0.500000000000     0          
C814     C      0.589100000000     0.089100000000     0.500000000000     0          
C815     C      0.631300000000     0.131300000000     0.500000000000     0          
C816     C      0.736900000000     0.236900000000     0.500000000000     0          
C817     C      0.694200000000     0.194200000000     0.500000000000     0          
C818     C      0.654900000000     0.154900000000     0.500000000000     0          
C819     C      0.567400000000     0.567400000000     0.000000000000     0          
C820     C      0.589100000000     0.589100000000     0.000000000000     0          
C821     C      0.631300000000     0.631300000000     0.000000000000     0          
C822     C      0.736900000000     0.736900000000     0.000000000000     0          
C823     C      0.694200000000     0.694200000000     0.000000000000     0          
C824     C      0.654900000000     0.654900000000     0.000000000000     0          
C825     C      0.932600000000     0.932600000000     0.000000000000     0          
C826     C      0.910900000000     0.910900000000     0.000000000000     0          
C827     C      0.868700000000     0.868700000000     0.000000000000     0          
C828     C      0.763100000000     0.763100000000     0.000000000000     0          
C829     C      0.805800000000     0.805800000000     0.000000000000     0          
C830     C      0.845100000000     0.845100000000     0.000000000000     0          
C831     C      0.932600000000     0.432600000000     0.500000000000     0          
C832     C      0.910900000000     0.410900000000     0.500000000000     0          
C833     C      0.868700000000     0.368700000000     0.500000000000     0          
C834     C      0.763100000000     0.263100000000     0.500000000000     0          
C835     C      0.805800000000     0.305800000000     0.500000000000     0          
C836     C      0.845100000000     0.345100000000     0.500000000000     0          
C837     C      0.432600000000     0.932600000000     0.500000000000     0          
C838     C      0.410900000000     0.910900000000     0.500000000000     0          
C839     C      0.368700000000     0.868700000000     0.500000000000     0          
C840     C      0.263100000000     0.763100000000     0.500000000000     0          
C841     C      0.305800000000     0.805800000000     0.500000000000     0          
C842     C      0.345100000000     0.845100000000     0.500000000000     0          
C843     C      0.432600000000     0.432600000000     0.000000000000     0          
C844     C      0.410900000000     0.410900000000     0.000000000000     0          
C845     C      0.368700000000     0.368700000000     0.000000000000     0          
C846     C      0.263100000000     0.263100000000     0.000000000000     0          
C847     C      0.305800000000     0.305800000000     0.000000000000     0          
C848     C      0.345100000000     0.345100000000     0.000000000000     0          
C849     C      0.067400000000     0.932600000000     0.000000000000     0          
C850     C      0.089100000000     0.910900000000     0.000000000000     0          
C851     C      0.131300000000     0.868700000000     0.000000000000     0          
C852     C      0.236900000000     0.763100000000     0.000000000000     0          
C853     C      0.194200000000     0.805800000000     0.000000000000     0          
C854     C      0.154900000000     0.845100000000     0.000000000000     0          
C855     C      0.067400000000     0.432600000000     0.500000000000     0          
C856     C      0.089100000000     0.410900000000     0.500000000000     0          
C857     C      0.131300000000     0.368700000000     0.500000000000     0          
C858     C      0.236900000000     0.263100000000     0.500000000000     0          
C859     C      0.194200000000     0.305800000000     0.500000000000     0          
C860     C      0.154900000000     0.345100000000     0.500000000000     0          
C861     C      0.567400000000     0.932600000000     0.500000000000     0          
C862     C      0.589100000000     0.910900000000     0.500000000000     0          
C863     C      0.631300000000     0.868700000000     0.500000000000     0          
C864     C      0.736900000000     0.763100000000     0.500000000000     0          
C865     C      0.694200000000     0.805800000000     0.500000000000     0          
C866     C      0.654900000000     0.845100000000     0.500000000000     0          
C867     C      0.567400000000     0.432600000000     0.000000000000     0          
C868     C      0.589100000000     0.410900000000     0.000000000000     0          
C869     C      0.631300000000     0.368700000000     0.000000000000     0          
C870     C      0.736900000000     0.263100000000     0.000000000000     0          
C871     C      0.694200000000     0.305800000000     0.000000000000     0          
C872     C      0.654900000000     0.345100000000     0.000000000000     0          
H873     H      0.000000000000     0.944150000000     0.125300000000     0          
H874     H      0.000000000000     0.904200000000     0.163620000000     0          
H875     H      0.000000000000     0.837890000000     0.230100000000     0          
H876     H      0.000000000000     0.798900000000     0.269090000000     0          
H877     H      0.000000000000     0.444150000000     0.625300000000     0          
H878     H      0.000000000000     0.404200000000     0.663620000000     0          
H879     H      0.000000000000     0.337890000000     0.730100000000     0          
H880     H      0.000000000000     0.298900000000     0.769090000000     0          
H881     H      0.500000000000     0.944150000000     0.625300000000     0          
H882     H      0.500000000000     0.904200000000     0.663620000000     0          
H883     H      0.500000000000     0.837890000000     0.730100000000     0          
H884     H      0.500000000000     0.798900000000     0.769090000000     0          
H885     H      0.500000000000     0.444150000000     0.125300000000     0          
H886     H      0.500000000000     0.404200000000     0.163620000000     0          
H887     H      0.500000000000     0.337890000000     0.230100000000     0          
H888     H      0.500000000000     0.298900000000     0.269090000000     0          
H889     H      0.000000000000     0.055850000000     0.125300000000     0          
H890     H      0.000000000000     0.095800000000     0.163620000000     0          
H891     H      0.000000000000     0.162110000000     0.230100000000     0          
H892     H      0.000000000000     0.201100000000     0.269090000000     0          
H893     H      0.000000000000     0.555850000000     0.625300000000     0          
H894     H      0.000000000000     0.595800000000     0.663620000000     0          
H895     H      0.000000000000     0.662110000000     0.730100000000     0          
H896     H      0.000000000000     0.701100000000     0.769090000000     0          
H897     H      0.500000000000     0.055850000000     0.625300000000     0          
H898     H      0.500000000000     0.095800000000     0.663620000000     0          
H899     H      0.500000000000     0.162110000000     0.730100000000     0          
H900     H      0.500000000000     0.201100000000     0.769090000000     0          
H901     H      0.500000000000     0.555850000000     0.125300000000     0          
H902     H      0.500000000000     0.595800000000     0.163620000000     0          
H903     H      0.500000000000     0.662110000000     0.230100000000     0          
H904     H      0.500000000000     0.701100000000     0.269090000000     0          
H905     H      0.000000000000     0.944150000000     0.874700000000     0          
H906     H      0.000000000000     0.904200000000     0.836380000000     0          
H907     H      0.000000000000     0.837890000000     0.769900000000     0          
N908     N      0.000000000000     0.798900000000     0.730910000000     0          
H909     H      0.000000000000     0.444150000000     0.374700000000     0          
H910     H      0.000000000000     0.404200000000     0.336380000000     0          
H911     H      0.000000000000     0.337890000000     0.269900000000     0          
N912     N      0.000000000000     0.298900000000     0.230910000000     0          
H913     H      0.500000000000     0.944150000000     0.374700000000     0          
H914     H      0.500000000000     0.904200000000     0.336380000000     0          
H915     H      0.500000000000     0.837890000000     0.269900000000     0          
N916     N      0.500000000000     0.798900000000     0.230910000000     0          
H917     H      0.500000000000     0.444150000000     0.874700000000     0          
H918     H      0.500000000000     0.404200000000     0.836380000000     0          
H919     H      0.500000000000     0.337890000000     0.769900000000     0          
N920     N      0.500000000000     0.298900000000     0.730910000000     0          
H921     H      0.000000000000     0.055850000000     0.874700000000     0          
H922     H      0.000000000000     0.095800000000     0.836380000000     0          
H923     H      0.000000000000     0.162110000000     0.769900000000     0          
H924     H      0.000000000000     0.201100000000     0.730910000000     0          
H925     H      0.000000000000     0.555850000000     0.374700000000     0          
H926     H      0.000000000000     0.595800000000     0.336380000000     0          
H927     H      0.000000000000     0.662110000000     0.269900000000     0          
H928     H      0.000000000000     0.701100000000     0.230910000000     0          
H929     H      0.500000000000     0.055850000000     0.374700000000     0          
H930     H      0.500000000000     0.095800000000     0.336380000000     0          
H931     H      0.500000000000     0.162110000000     0.269900000000     0          
H932     H      0.500000000000     0.201100000000     0.230910000000     0          
H933     H      0.500000000000     0.555850000000     0.874700000000     0          
H934     H      0.500000000000     0.595800000000     0.836380000000     0          
H935     H      0.500000000000     0.662110000000     0.769900000000     0          
H936     H      0.500000000000     0.701100000000     0.730910000000     0          
H937     H      0.125300000000     0.000000000000     0.944150000000     0          
H938     H      0.163620000000     0.000000000000     0.904200000000     0          
H939     H      0.230100000000     0.000000000000     0.837890000000     0          
H940     H      0.269090000000     0.000000000000     0.798900000000     0          
H941     H      0.125300000000     0.500000000000     0.444150000000     0          
H942     H      0.163620000000     0.500000000000     0.404200000000     0          
H943     H      0.230100000000     0.500000000000     0.337890000000     0          
H944     H      0.269090000000     0.500000000000     0.298900000000     0          
H945     H      0.625300000000     0.000000000000     0.444150000000     0          
H946     H      0.663620000000     0.000000000000     0.404200000000     0          
H947     H      0.730100000000     0.000000000000     0.337890000000     0          
H948     H      0.769090000000     0.000000000000     0.298900000000     0          
H949     H      0.625300000000     0.500000000000     0.944150000000     0          
H950     H      0.663620000000     0.500000000000     0.904200000000     0          
H951     H      0.730100000000     0.500000000000     0.837890000000     0          
H952     H      0.769090000000     0.500000000000     0.798900000000     0          
H953     H      0.125300000000     0.000000000000     0.055850000000     0          
H954     H      0.163620000000     0.000000000000     0.095800000000     0          
H955     H      0.230100000000     0.000000000000     0.162110000000     0          
H956     H      0.269090000000     0.000000000000     0.201100000000     0          
H957     H      0.125300000000     0.500000000000     0.555850000000     0          
H958     H      0.163620000000     0.500000000000     0.595800000000     0          
H959     H      0.230100000000     0.500000000000     0.662110000000     0          
H960     H      0.269090000000     0.500000000000     0.701100000000     0          
H961     H      0.625300000000     0.000000000000     0.555850000000     0          
H962     H      0.663620000000     0.000000000000     0.595800000000     0          
H963     H      0.730100000000     0.000000000000     0.662110000000     0          
H964     H      0.769090000000     0.000000000000     0.701100000000     0          
H965     H      0.625300000000     0.500000000000     0.055850000000     0          
H966     H      0.663620000000     0.500000000000     0.095800000000     0          
H967     H      0.730100000000     0.500000000000     0.162110000000     0          
H968     H      0.769090000000     0.500000000000     0.201100000000     0          
H969     H      0.874700000000     0.000000000000     0.944150000000     0          
H970     H      0.836380000000     0.000000000000     0.904200000000     0          
H971     H      0.769900000000     0.000000000000     0.837890000000     0          
N972     N      0.730910000000     0.000000000000     0.798900000000     0          
H973     H      0.874700000000     0.500000000000     0.444150000000     0          
H974     H      0.836380000000     0.500000000000     0.404200000000     0          
H975     H      0.769900000000     0.500000000000     0.337890000000     0          
N976     N      0.730910000000     0.500000000000     0.298900000000     0          
H977     H      0.374700000000     0.000000000000     0.444150000000     0          
H978     H      0.336380000000     0.000000000000     0.404200000000     0          
H979     H      0.269900000000     0.000000000000     0.337890000000     0          
N980     N      0.230910000000     0.000000000000     0.298900000000     0          
H981     H      0.374700000000     0.500000000000     0.944150000000     0          
H982     H      0.336380000000     0.500000000000     0.904200000000     0          
H983     H      0.269900000000     0.500000000000     0.837890000000     0          
N984     N      0.230910000000     0.500000000000     0.798900000000     0          
H985     H      0.874700000000     0.000000000000     0.055850000000     0          
H986     H      0.836380000000     0.000000000000     0.095800000000     0          
H987     H      0.769900000000     0.000000000000     0.162110000000     0          
H988     H      0.730910000000     0.000000000000     0.201100000000     0          
H989     H      0.874700000000     0.500000000000     0.555850000000     0          
H990     H      0.836380000000     0.500000000000     0.595800000000     0          
H991     H      0.769900000000     0.500000000000     0.662110000000     0          
H992     H      0.730910000000     0.500000000000     0.701100000000     0          
H993     H      0.374700000000     0.000000000000     0.555850000000     0          
H994     H      0.336380000000     0.000000000000     0.595800000000     0          
H995     H      0.269900000000     0.000000000000     0.662110000000     0          
H996     H      0.230910000000     0.000000000000     0.701100000000     0          
H997     H      0.374700000000     0.500000000000     0.055850000000     0          
H998     H      0.336380000000     0.500000000000     0.095800000000     0          
H999     H      0.269900000000     0.500000000000     0.162110000000     0          
H1000    H      0.230910000000     0.500000000000     0.201100000000     0          
H1001    H      0.944150000000     0.125300000000     0.000000000000     0          
H1002    H      0.904200000000     0.163620000000     0.000000000000     0          
H1003    H      0.837890000000     0.230100000000     0.000000000000     0          
H1004    H      0.798900000000     0.269090000000     0.000000000000     0          
H1005    H      0.944150000000     0.625300000000     0.500000000000     0          
H1006    H      0.904200000000     0.663620000000     0.500000000000     0          
H1007    H      0.837890000000     0.730100000000     0.500000000000     0          
H1008    H      0.798900000000     0.769090000000     0.500000000000     0          
H1009    H      0.444150000000     0.125300000000     0.500000000000     0          
H1010    H      0.404200000000     0.163620000000     0.500000000000     0          
H1011    H      0.337890000000     0.230100000000     0.500000000000     0          
H1012    H      0.298900000000     0.269090000000     0.500000000000     0          
H1013    H      0.444150000000     0.625300000000     0.000000000000     0          
H1014    H      0.404200000000     0.663620000000     0.000000000000     0          
H1015    H      0.337890000000     0.730100000000     0.000000000000     0          
H1016    H      0.298900000000     0.769090000000     0.000000000000     0          
H1017    H      0.055850000000     0.125300000000     0.000000000000     0          
H1018    H      0.095800000000     0.163620000000     0.000000000000     0          
H1019    H      0.162110000000     0.230100000000     0.000000000000     0          
N1020    N      0.201100000000     0.269090000000     0.000000000000     0          
H1021    H      0.055850000000     0.625300000000     0.500000000000     0          
H1022    H      0.095800000000     0.663620000000     0.500000000000     0          
H1023    H      0.162110000000     0.730100000000     0.500000000000     0          
N1024    N      0.201100000000     0.769090000000     0.500000000000     0          
H1025    H      0.555850000000     0.125300000000     0.500000000000     0          
H1026    H      0.595800000000     0.163620000000     0.500000000000     0          
H1027    H      0.662110000000     0.230100000000     0.500000000000     0          
N1028    N      0.701100000000     0.269090000000     0.500000000000     0          
H1029    H      0.555850000000     0.625300000000     0.000000000000     0          
H1030    H      0.595800000000     0.663620000000     0.000000000000     0          
H1031    H      0.662110000000     0.730100000000     0.000000000000     0          
N1032    N      0.701100000000     0.769090000000     0.000000000000     0          
H1033    H      0.944150000000     0.874700000000     0.000000000000     0          
H1034    H      0.904200000000     0.836380000000     0.000000000000     0          
H1035    H      0.837890000000     0.769900000000     0.000000000000     0          
H1036    H      0.798900000000     0.730910000000     0.000000000000     0          
H1037    H      0.944150000000     0.374700000000     0.500000000000     0          
H1038    H      0.904200000000     0.336380000000     0.500000000000     0          
H1039    H      0.837890000000     0.269900000000     0.500000000000     0          
H1040    H      0.798900000000     0.230910000000     0.500000000000     0          
H1041    H      0.444150000000     0.874700000000     0.500000000000     0          
H1042    H      0.404200000000     0.836380000000     0.500000000000     0          
H1043    H      0.337890000000     0.769900000000     0.500000000000     0          
H1044    H      0.298900000000     0.730910000000     0.500000000000     0          
H1045    H      0.444150000000     0.374700000000     0.000000000000     0          
H1046    H      0.404200000000     0.336380000000     0.000000000000     0          
H1047    H      0.337890000000     0.269900000000     0.000000000000     0          
H1048    H      0.298900000000     0.230910000000     0.000000000000     0          
H1049    H      0.055850000000     0.874700000000     0.000000000000     0          
H1050    H      0.095800000000     0.836380000000     0.000000000000     0          
H1051    H      0.162110000000     0.769900000000     0.000000000000     0          
H1052    H      0.201100000000     0.730910000000     0.000000000000     0          
H1053    H      0.055850000000     0.374700000000     0.500000000000     0          
H1054    H      0.095800000000     0.336380000000     0.500000000000     0          
H1055    H      0.162110000000     0.269900000000     0.500000000000     0          
H1056    H      0.201100000000     0.230910000000     0.500000000000     0          
H1057    H      0.555850000000     0.874700000000     0.500000000000     0          
H1058    H      0.595800000000     0.836380000000     0.500000000000     0          
H1059    H      0.662110000000     0.769900000000     0.500000000000     0          
H1060    H      0.701100000000     0.730910000000     0.500000000000     0          
H1061    H      0.555850000000     0.374700000000     0.000000000000     0          
H1062    H      0.595800000000     0.336380000000     0.000000000000     0          
H1063    H      0.662110000000     0.269900000000     0.000000000000     0          
H1064    H      0.701100000000     0.230910000000     0.000000000000     0          
H1065    H      0.944150000000     0.000000000000     0.874700000000     0          
H1066    H      0.904200000000     0.000000000000     0.836380000000     0          
H1067    H      0.837890000000     0.000000000000     0.769900000000     0          
H1068    H      0.798900000000     0.000000000000     0.730910000000     0          
H1069    H      0.944150000000     0.500000000000     0.374700000000     0          
H1070    H      0.904200000000     0.500000000000     0.336380000000     0          
H1071    H      0.837890000000     0.500000000000     0.269900000000     0          
H1072    H      0.798900000000     0.500000000000     0.230910000000     0          
H1073    H      0.444150000000     0.000000000000     0.374700000000     0          
H1074    H      0.404200000000     0.000000000000     0.336380000000     0          
H1075    H      0.337890000000     0.000000000000     0.269900000000     0          
H1076    H      0.298900000000     0.000000000000     0.230910000000     0          
H1077    H      0.444150000000     0.500000000000     0.874700000000     0          
H1078    H      0.404200000000     0.500000000000     0.836380000000     0          
H1079    H      0.337890000000     0.500000000000     0.769900000000     0          
H1080    H      0.298900000000     0.500000000000     0.730910000000     0          
H1081    H      0.055850000000     0.000000000000     0.874700000000     0          
H1082    H      0.095800000000     0.000000000000     0.836380000000     0          
H1083    H      0.162110000000     0.000000000000     0.769900000000     0          
N1084    N      0.201100000000     0.000000000000     0.730910000000     0          
H1085    H      0.055850000000     0.500000000000     0.374700000000     0          
H1086    H      0.095800000000     0.500000000000     0.336380000000     0          
H1087    H      0.162110000000     0.500000000000     0.269900000000     0          
N1088    N      0.201100000000     0.500000000000     0.230910000000     0          
H1089    H      0.555850000000     0.000000000000     0.374700000000     0          
H1090    H      0.595800000000     0.000000000000     0.336380000000     0          
H1091    H      0.662110000000     0.000000000000     0.269900000000     0          
N1092    N      0.701100000000     0.000000000000     0.230910000000     0          
H1093    H      0.555850000000     0.500000000000     0.874700000000     0          
H1094    H      0.595800000000     0.500000000000     0.836380000000     0          
H1095    H      0.662110000000     0.500000000000     0.769900000000     0          
N1096    N      0.701100000000     0.500000000000     0.730910000000     0          
H1097    H      0.944150000000     0.000000000000     0.125300000000     0          
H1098    H      0.904200000000     0.000000000000     0.163620000000     0          
H1099    H      0.837890000000     0.000000000000     0.230100000000     0          
H1100    H      0.798900000000     0.000000000000     0.269090000000     0          
H1101    H      0.944150000000     0.500000000000     0.625300000000     0          
H1102    H      0.904200000000     0.500000000000     0.663620000000     0          
H1103    H      0.837890000000     0.500000000000     0.730100000000     0          
H1104    H      0.798900000000     0.500000000000     0.769090000000     0          
H1105    H      0.444150000000     0.000000000000     0.625300000000     0          
H1106    H      0.404200000000     0.000000000000     0.663620000000     0          
H1107    H      0.337890000000     0.000000000000     0.730100000000     0          
H1108    H      0.298900000000     0.000000000000     0.769090000000     0          
H1109    H      0.444150000000     0.500000000000     0.125300000000     0          
H1110    H      0.404200000000     0.500000000000     0.163620000000     0          
H1111    H      0.337890000000     0.500000000000     0.230100000000     0          
H1112    H      0.298900000000     0.500000000000     0.269090000000     0          
H1113    H      0.055850000000     0.000000000000     0.125300000000     0          
H1114    H      0.095800000000     0.000000000000     0.163620000000     0          
H1115    H      0.162110000000     0.000000000000     0.230100000000     0          
H1116    H      0.201100000000     0.000000000000     0.269090000000     0          
H1117    H      0.055850000000     0.500000000000     0.625300000000     0          
H1118    H      0.095800000000     0.500000000000     0.663620000000     0          
H1119    H      0.162110000000     0.500000000000     0.730100000000     0          
H1120    H      0.201100000000     0.500000000000     0.769090000000     0          
H1121    H      0.555850000000     0.000000000000     0.625300000000     0          
H1122    H      0.595800000000     0.000000000000     0.663620000000     0          
H1123    H      0.662110000000     0.000000000000     0.730100000000     0          
H1124    H      0.701100000000     0.000000000000     0.769090000000     0          
H1125    H      0.555850000000     0.500000000000     0.125300000000     0          
H1126    H      0.595800000000     0.500000000000     0.163620000000     0          
H1127    H      0.662110000000     0.500000000000     0.230100000000     0          
H1128    H      0.701100000000     0.500000000000     0.269090000000     0          
H1129    H      0.000000000000     0.125300000000     0.055850000000     0          
H1130    H      0.000000000000     0.163620000000     0.095800000000     0          
H1131    H      0.000000000000     0.230100000000     0.162110000000     0          
H1132    H      0.000000000000     0.269090000000     0.201100000000     0          
H1133    H      0.000000000000     0.625300000000     0.555850000000     0          
H1134    H      0.000000000000     0.663620000000     0.595800000000     0          
H1135    H      0.000000000000     0.730100000000     0.662110000000     0          
H1136    H      0.000000000000     0.769090000000     0.701100000000     0          
H1137    H      0.500000000000     0.125300000000     0.555850000000     0          
H1138    H      0.500000000000     0.163620000000     0.595800000000     0          
H1139    H      0.500000000000     0.230100000000     0.662110000000     0          
H1140    H      0.500000000000     0.269090000000     0.701100000000     0          
H1141    H      0.500000000000     0.625300000000     0.055850000000     0          
H1142    H      0.500000000000     0.663620000000     0.095800000000     0          
H1143    H      0.500000000000     0.730100000000     0.162110000000     0          
H1144    H      0.500000000000     0.769090000000     0.201100000000     0          
H1145    H      0.000000000000     0.125300000000     0.944150000000     0          
H1146    H      0.000000000000     0.163620000000     0.904200000000     0          
H1147    H      0.000000000000     0.230100000000     0.837890000000     0          
N1148    N      0.000000000000     0.269090000000     0.798900000000     0          
H1149    H      0.000000000000     0.625300000000     0.444150000000     0          
H1150    H      0.000000000000     0.663620000000     0.404200000000     0          
H1151    H      0.000000000000     0.730100000000     0.337890000000     0          
N1152    N      0.000000000000     0.769090000000     0.298900000000     0          
H1153    H      0.500000000000     0.125300000000     0.444150000000     0          
H1154    H      0.500000000000     0.163620000000     0.404200000000     0          
H1155    H      0.500000000000     0.230100000000     0.337890000000     0          
N1156    N      0.500000000000     0.269090000000     0.298900000000     0          
H1157    H      0.500000000000     0.625300000000     0.944150000000     0          
H1158    H      0.500000000000     0.663620000000     0.904200000000     0          
H1159    H      0.500000000000     0.730100000000     0.837890000000     0          
N1160    N      0.500000000000     0.769090000000     0.798900000000     0          
H1161    H      0.000000000000     0.874700000000     0.055850000000     0          
H1162    H      0.000000000000     0.836380000000     0.095800000000     0          
H1163    H      0.000000000000     0.769900000000     0.162110000000     0          
H1164    H      0.000000000000     0.730910000000     0.201100000000     0          
H1165    H      0.000000000000     0.374700000000     0.555850000000     0          
H1166    H      0.000000000000     0.336380000000     0.595800000000     0          
H1167    H      0.000000000000     0.269900000000     0.662110000000     0          
H1168    H      0.000000000000     0.230910000000     0.701100000000     0          
H1169    H      0.500000000000     0.874700000000     0.555850000000     0          
H1170    H      0.500000000000     0.836380000000     0.595800000000     0          
H1171    H      0.500000000000     0.769900000000     0.662110000000     0          
H1172    H      0.500000000000     0.730910000000     0.701100000000     0          
H1173    H      0.500000000000     0.374700000000     0.055850000000     0          
H1174    H      0.500000000000     0.336380000000     0.095800000000     0          
H1175    H      0.500000000000     0.269900000000     0.162110000000     0          
H1176    H      0.500000000000     0.230910000000     0.201100000000     0          
H1177    H      0.000000000000     0.874700000000     0.944150000000     0          
H1178    H      0.000000000000     0.836380000000     0.904200000000     0          
H1179    H      0.000000000000     0.769900000000     0.837890000000     0          
H1180    H      0.000000000000     0.730910000000     0.798900000000     0          
H1181    H      0.000000000000     0.374700000000     0.444150000000     0          
H1182    H      0.000000000000     0.336380000000     0.404200000000     0          
H1183    H      0.000000000000     0.269900000000     0.337890000000     0          
H1184    H      0.000000000000     0.230910000000     0.298900000000     0          
H1185    H      0.500000000000     0.874700000000     0.444150000000     0          
H1186    H      0.500000000000     0.836380000000     0.404200000000     0          
H1187    H      0.500000000000     0.769900000000     0.337890000000     0          
H1188    H      0.500000000000     0.730910000000     0.298900000000     0          
H1189    H      0.500000000000     0.374700000000     0.944150000000     0          
H1190    H      0.500000000000     0.336380000000     0.904200000000     0          
H1191    H      0.500000000000     0.269900000000     0.837890000000     0          
H1192    H      0.500000000000     0.230910000000     0.798900000000     0          
H1193    H      0.125300000000     0.944150000000     0.000000000000     0          
H1194    H      0.163620000000     0.904200000000     0.000000000000     0          
H1195    H      0.230100000000     0.837890000000     0.000000000000     0          
N1196    N      0.269090000000     0.798900000000     0.000000000000     0          
H1197    H      0.125300000000     0.444150000000     0.500000000000     0          
H1198    H      0.163620000000     0.404200000000     0.500000000000     0          
H1199    H      0.230100000000     0.337890000000     0.500000000000     0          
N1200    N      0.269090000000     0.298900000000     0.500000000000     0          
H1201    H      0.625300000000     0.944150000000     0.500000000000     0          
H1202    H      0.663620000000     0.904200000000     0.500000000000     0          
H1203    H      0.730100000000     0.837890000000     0.500000000000     0          
N1204    N      0.769090000000     0.798900000000     0.500000000000     0          
H1205    H      0.625300000000     0.444150000000     0.000000000000     0          
H1206    H      0.663620000000     0.404200000000     0.000000000000     0          
H1207    H      0.730100000000     0.337890000000     0.000000000000     0          
N1208    N      0.769090000000     0.298900000000     0.000000000000     0          
H1209    H      0.125300000000     0.055850000000     0.000000000000     0          
H1210    H      0.163620000000     0.095800000000     0.000000000000     0          
H1211    H      0.230100000000     0.162110000000     0.000000000000     0          
H1212    H      0.269090000000     0.201100000000     0.000000000000     0          
H1213    H      0.125300000000     0.555850000000     0.500000000000     0          
H1214    H      0.163620000000     0.595800000000     0.500000000000     0          
H1215    H      0.230100000000     0.662110000000     0.500000000000     0          
H1216    H      0.269090000000     0.701100000000     0.500000000000     0          
H1217    H      0.625300000000     0.055850000000     0.500000000000     0          
H1218    H      0.663620000000     0.095800000000     0.500000000000     0          
H1219    H      0.730100000000     0.162110000000     0.500000000000     0          
H1220    H      0.769090000000     0.201100000000     0.500000000000     0          
H1221    H      0.625300000000     0.555850000000     0.000000000000     0          
H1222    H      0.663620000000     0.595800000000     0.000000000000     0          
H1223    H      0.730100000000     0.662110000000     0.000000000000     0          
H1224    H      0.769090000000     0.701100000000     0.000000000000     0          
H1225    H      0.874700000000     0.944150000000     0.000000000000     0          
H1226    H      0.836380000000     0.904200000000     0.000000000000     0          
H1227    H      0.769900000000     0.837890000000     0.000000000000     0          
H1228    H      0.730910000000     0.798900000000     0.000000000000     0          
H1229    H      0.874700000000     0.444150000000     0.500000000000     0          
H1230    H      0.836380000000     0.404200000000     0.500000000000     0          
H1231    H      0.769900000000     0.337890000000     0.500000000000     0          
H1232    H      0.730910000000     0.298900000000     0.500000000000     0          
H1233    H      0.374700000000     0.944150000000     0.500000000000     0          
H1234    H      0.336380000000     0.904200000000     0.500000000000     0          
H1235    H      0.269900000000     0.837890000000     0.500000000000     0          
H1236    H      0.230910000000     0.798900000000     0.500000000000     0          
H1237    H      0.374700000000     0.444150000000     0.000000000000     0          
H1238    H      0.336380000000     0.404200000000     0.000000000000     0          
H1239    H      0.269900000000     0.337890000000     0.000000000000     0          
H1240    H      0.230910000000     0.298900000000     0.000000000000     0          
H1241    H      0.874700000000     0.055850000000     0.000000000000     0          
H1242    H      0.836380000000     0.095800000000     0.000000000000     0          
H1243    H      0.769900000000     0.162110000000     0.000000000000     0          
H1244    H      0.730910000000     0.201100000000     0.000000000000     0          
H1245    H      0.874700000000     0.555850000000     0.500000000000     0          
H1246    H      0.836380000000     0.595800000000     0.500000000000     0          
H1247    H      0.769900000000     0.662110000000     0.500000000000     0          
H1248    H      0.730910000000     0.701100000000     0.500000000000     0          
H1249    H      0.374700000000     0.055850000000     0.500000000000     0          
H1250    H      0.336380000000     0.095800000000     0.500000000000     0          
H1251    H      0.269900000000     0.162110000000     0.500000000000     0          
H1252    H      0.230910000000     0.201100000000     0.500000000000     0          
H1253    H      0.374700000000     0.555850000000     0.000000000000     0          
H1254    H      0.336380000000     0.595800000000     0.000000000000     0          
H1255    H      0.269900000000     0.662110000000     0.000000000000     0          
H1256    H      0.230910000000     0.701100000000     0.000000000000     0          
O1257    O      0.284600000000     0.787530000000     0.985510000000     0          
O1258    O      0.276830000000     0.816500000000     0.014490000000     0          
O1259    O      0.284600000000     0.287530000000     0.485510000000     0          
O1260    O      0.276830000000     0.316500000000     0.514490000000     0          
O1261    O      0.784600000000     0.787530000000     0.485510000000     0          
O1262    O      0.776830000000     0.816500000000     0.514490000000     0          
O1263    O      0.784600000000     0.287530000000     0.985510000000     0          
O1264    O      0.776830000000     0.316500000000     0.014490000000     0          
O1265    O      0.178480000000     0.275490000000     0.994770000000     0          
O1266    O      0.217480000000     0.285940000000     0.005230000000     0          
O1267    O      0.178480000000     0.775490000000     0.494770000000     0          
O1268    O      0.217480000000     0.785940000000     0.505230000000     0          
O1269    O      0.678480000000     0.275490000000     0.494770000000     0          
O1270    O      0.717480000000     0.285940000000     0.505230000000     0          
O1271    O      0.678480000000     0.775490000000     0.994770000000     0          
O1272    O      0.717480000000     0.785940000000     0.005230000000     0          
O1273    O      0.020850000000     0.302020000000     0.219280000000     0          
O1274    O      0.979150000000     0.302020000000     0.219280000000     0          
O1275    O      0.494770000000     0.782520000000     0.214060000000     0          
O1276    O      0.505230000000     0.821520000000     0.224510000000     0          
O1277    O      0.494770000000     0.282520000000     0.714060000000     0          
O1278    O      0.505230000000     0.321520000000     0.724510000000     0          
O1279    O      0.485510000000     0.284600000000     0.287530000000     0          
O1280    O      0.514490000000     0.276830000000     0.316500000000     0          
O1281    O      0.994770000000     0.782520000000     0.714060000000     0          
O1282    O      0.005230000000     0.821520000000     0.724510000000     0          
O1283    O      0.985510000000     0.284600000000     0.787530000000     0          
O1284    O      0.014490000000     0.276830000000     0.816500000000     0          
O1285    O      0.985510000000     0.784600000000     0.287530000000     0          
O1286    O      0.014490000000     0.776830000000     0.316500000000     0          
O1287    O      0.485510000000     0.784600000000     0.787530000000     0          
O1288    O      0.514490000000     0.776830000000     0.816500000000     0          
O1289    O      0.715400000000     0.985510000000     0.787530000000     0          
O1290    O      0.723170000000     0.014490000000     0.816500000000     0          
O1291    O      0.215400000000     0.485510000000     0.787530000000     0          
O1292    O      0.223170000000     0.514490000000     0.816500000000     0          
O1293    O      0.217480000000     0.994770000000     0.714060000000     0          
O1294    O      0.178480000000     0.005230000000     0.724510000000     0          
O1295    O      0.717480000000     0.494770000000     0.714060000000     0          
O1296    O      0.678480000000     0.505230000000     0.724510000000     0          
O1297    O      0.715400000000     0.485510000000     0.287530000000     0          
O1298    O      0.723170000000     0.514490000000     0.316500000000     0          
O1299    O      0.217480000000     0.494770000000     0.214060000000     0          
O1300    O      0.178480000000     0.505230000000     0.224510000000     0          
O1301    O      0.215400000000     0.985510000000     0.287530000000     0          
O1302    O      0.223170000000     0.014490000000     0.316500000000     0          
O1303    O      0.717480000000     0.994770000000     0.214060000000     0          
O1304    O      0.678480000000     0.005230000000     0.224510000000     0          


