data_UFEFIX

_audit_creation_method RASPA-1.0
_audit_creation_date 2020-11-2
_audit_author_name 'Rocio Bueno-Perez'

_cell_length_a    34.7137
_cell_length_b    34.7137
_cell_length_c    34.7137
_cell_angle_alpha 90
_cell_angle_beta  90
_cell_angle_gamma 90
_cell_volume      41831.4

_symmetry_cell_setting          triclinic
_symmetry_space_group_name_Hall 'P 1'
_symmetry_space_group_name_H-M  'P 1'
_symmetry_Int_Tables_number     1

_symmetry_equiv_pos_as_xyz 'x,y,z'

loop_
_atom_site_label
_atom_site_type_symbol
_atom_site_fract_x
_atom_site_fract_y
_atom_site_fract_z
_atom_site_charge
C1       C      0.687100000000     0.706700000000     0.026400000000     0          
H2       H      0.689440000000     0.733620000000     0.025650000000     0          
C3       C      0.489000000000     0.617100000000     0.051600000000     0          
H4       H      0.487660000000     0.642180000000     0.061760000000     0          
Zr5      Zr     0.520210000000     0.529220000000     0.061960000000     0          
O6       O      0.578420000000     0.555960000000     0.065400000000     0          
O7       O      0.604790000000     0.552070000000     0.006530000000     0          
O8       O      0.669800000000     0.588730000000     0.031950000000     0          
O9       O      0.525460000000     0.555000000000     0.006780000000     0          
O10      O      0.509800000000     0.589230000000     0.078500000000     0          
C11      C      0.604870000000     0.560890000000     0.041210000000     0          
O12      O      0.471600000000     0.614530000000     0.015900000000     0          
C13      C      0.676520000000     0.628300000000     0.030190000000     0          
C14      C      0.667520000000     0.647800000000     0.996400000000     0          
C15      C      0.694360000000     0.646400000000     0.061600000000     0          
C16      C      0.698100000000     0.686200000000     0.059300000000     0          
H17      H      0.708360000000     0.699720000000     0.080460000000     0          
C18      C      0.641300000000     0.577500000000     0.058690000000     0          
H19      H      0.634330000000     0.599980000000     0.074270000000     0          
H20      H      0.652470000000     0.558260000000     0.076080000000     0          
C21      C      0.655060000000     0.625700000000     0.961020000000     0          
H22      H      0.634350000000     0.607780000000     0.967890000000     0          
H23      H      0.645060000000     0.643670000000     0.941690000000     0          
C24      C      0.673100000000     0.687500000000     0.995900000000     0          
H25      H      0.666850000000     0.701300000000     0.973500000000     0          
C26      C      0.187100000000     0.206700000000     0.526400000000     0          
H27      H      0.189440000000     0.233620000000     0.525650000000     0          
C28      C      0.989000000000     0.117100000000     0.551600000000     0          
H29      H      0.987660000000     0.142180000000     0.561760000000     0          
Zr30     Zr     0.020210000000     0.029220000000     0.561960000000     0          
O31      O      0.078420000000     0.055960000000     0.565400000000     0          
O32      O      0.104790000000     0.052070000000     0.506530000000     0          
O33      O      0.169800000000     0.088730000000     0.531950000000     0          
O34      O      0.025460000000     0.055000000000     0.506780000000     0          
O35      O      0.009800000000     0.089230000000     0.578500000000     0          
C36      C      0.104870000000     0.060890000000     0.541210000000     0          
O37      O      0.971600000000     0.114530000000     0.515900000000     0          
C38      C      0.176520000000     0.128300000000     0.530190000000     0          
C39      C      0.167520000000     0.147800000000     0.496400000000     0          
C40      C      0.194360000000     0.146400000000     0.561600000000     0          
C41      C      0.198100000000     0.186200000000     0.559300000000     0          
H42      H      0.208360000000     0.199720000000     0.580460000000     0          
C43      C      0.141300000000     0.077500000000     0.558690000000     0          
H44      H      0.134330000000     0.099980000000     0.574270000000     0          
H45      H      0.152470000000     0.058260000000     0.576080000000     0          
C46      C      0.155060000000     0.125700000000     0.461020000000     0          
H47      H      0.134350000000     0.107780000000     0.467890000000     0          
H48      H      0.145060000000     0.143670000000     0.441690000000     0          
C49      C      0.173100000000     0.187500000000     0.495900000000     0          
H50      H      0.166850000000     0.201300000000     0.473500000000     0          
C51      C      0.812900000000     0.293300000000     0.526400000000     0          
H52      H      0.810560000000     0.266380000000     0.525650000000     0          
C53      C      0.011000000000     0.382900000000     0.551600000000     0          
H54      H      0.012340000000     0.357820000000     0.561760000000     0          
Zr55     Zr     0.979790000000     0.470780000000     0.561960000000     0          
O56      O      0.921580000000     0.444040000000     0.565400000000     0          
O57      O      0.895210000000     0.447930000000     0.506530000000     0          
O58      O      0.830200000000     0.411270000000     0.531950000000     0          
O59      O      0.974540000000     0.445000000000     0.506780000000     0          
O60      O      0.990200000000     0.410770000000     0.578500000000     0          
C61      C      0.895130000000     0.439110000000     0.541210000000     0          
O62      O      0.028400000000     0.385470000000     0.515900000000     0          
C63      C      0.823480000000     0.371700000000     0.530190000000     0          
C64      C      0.832480000000     0.352200000000     0.496400000000     0          
C65      C      0.805640000000     0.353600000000     0.561600000000     0          
C66      C      0.801900000000     0.313800000000     0.559300000000     0          
H67      H      0.791640000000     0.300280000000     0.580460000000     0          
C68      C      0.858700000000     0.422500000000     0.558690000000     0          
H69      H      0.865670000000     0.400020000000     0.574270000000     0          
H70      H      0.847530000000     0.441740000000     0.576080000000     0          
C71      C      0.844940000000     0.374300000000     0.461020000000     0          
H72      H      0.865650000000     0.392220000000     0.467890000000     0          
H73      H      0.854940000000     0.356330000000     0.441690000000     0          
C74      C      0.826900000000     0.312500000000     0.495900000000     0          
H75      H      0.833150000000     0.298700000000     0.473500000000     0          
C76      C      0.312900000000     0.793300000000     0.026400000000     0          
H77      H      0.310560000000     0.766380000000     0.025650000000     0          
C78      C      0.511000000000     0.882900000000     0.051600000000     0          
H79      H      0.512340000000     0.857820000000     0.061760000000     0          
Zr80     Zr     0.479790000000     0.970780000000     0.061960000000     0          
O81      O      0.421580000000     0.944040000000     0.065400000000     0          
O82      O      0.395210000000     0.947930000000     0.006530000000     0          
O83      O      0.330200000000     0.911270000000     0.031950000000     0          
O84      O      0.474540000000     0.945000000000     0.006780000000     0          
O85      O      0.490200000000     0.910770000000     0.078500000000     0          
C86      C      0.395130000000     0.939110000000     0.041210000000     0          
O87      O      0.528400000000     0.885470000000     0.015900000000     0          
C88      C      0.323480000000     0.871700000000     0.030190000000     0          
C89      C      0.332480000000     0.852200000000     0.996400000000     0          
C90      C      0.305640000000     0.853600000000     0.061600000000     0          
C91      C      0.301900000000     0.813800000000     0.059300000000     0          
H92      H      0.291640000000     0.800280000000     0.080460000000     0          
C93      C      0.358700000000     0.922500000000     0.058690000000     0          
H94      H      0.365670000000     0.900020000000     0.074270000000     0          
H95      H      0.347530000000     0.941740000000     0.076080000000     0          
C96      C      0.344940000000     0.874300000000     0.961020000000     0          
H97      H      0.365650000000     0.892220000000     0.967890000000     0          
H98      H      0.354940000000     0.856330000000     0.941690000000     0          
C99      C      0.326900000000     0.812500000000     0.995900000000     0          
H100     H      0.333150000000     0.798700000000     0.973500000000     0          
C101     C      0.312900000000     0.206700000000     0.473600000000     0          
H102     H      0.310560000000     0.233620000000     0.474350000000     0          
C103     C      0.511000000000     0.117100000000     0.448400000000     0          
H104     H      0.512340000000     0.142180000000     0.438240000000     0          
Zr105    Zr     0.479790000000     0.029220000000     0.438040000000     0          
O106     O      0.421580000000     0.055960000000     0.434600000000     0          
O107     O      0.395210000000     0.052070000000     0.493470000000     0          
O108     O      0.330200000000     0.088730000000     0.468050000000     0          
O109     O      0.474540000000     0.055000000000     0.493220000000     0          
O110     O      0.490200000000     0.089230000000     0.421500000000     0          
C111     C      0.395130000000     0.060890000000     0.458790000000     0          
O112     O      0.528400000000     0.114530000000     0.484100000000     0          
C113     C      0.323480000000     0.128300000000     0.469810000000     0          
C114     C      0.332480000000     0.147800000000     0.503600000000     0          
C115     C      0.305640000000     0.146400000000     0.438400000000     0          
C116     C      0.301900000000     0.186200000000     0.440700000000     0          
H117     H      0.291640000000     0.199720000000     0.419540000000     0          
C118     C      0.358700000000     0.077500000000     0.441310000000     0          
H119     H      0.365670000000     0.099980000000     0.425730000000     0          
H120     H      0.347530000000     0.058260000000     0.423920000000     0          
C121     C      0.344940000000     0.125700000000     0.538980000000     0          
H122     H      0.365650000000     0.107780000000     0.532110000000     0          
H123     H      0.354940000000     0.143670000000     0.558310000000     0          
C124     C      0.326900000000     0.187500000000     0.504100000000     0          
H125     H      0.333150000000     0.201300000000     0.526500000000     0          
C126     C      0.812900000000     0.706700000000     0.973600000000     0          
H127     H      0.810560000000     0.733620000000     0.974350000000     0          
C128     C      0.011000000000     0.617100000000     0.948400000000     0          
H129     H      0.012340000000     0.642180000000     0.938240000000     0          
Zr130    Zr     0.979790000000     0.529220000000     0.938040000000     0          
O131     O      0.921580000000     0.555960000000     0.934600000000     0          
O132     O      0.895210000000     0.552070000000     0.993470000000     0          
O133     O      0.830200000000     0.588730000000     0.968050000000     0          
O134     O      0.974540000000     0.555000000000     0.993220000000     0          
O135     O      0.990200000000     0.589230000000     0.921500000000     0          
C136     C      0.895130000000     0.560890000000     0.958790000000     0          
O137     O      0.028400000000     0.614530000000     0.984100000000     0          
C138     C      0.823480000000     0.628300000000     0.969810000000     0          
C139     C      0.832480000000     0.647800000000     0.003600000000     0          
C140     C      0.805640000000     0.646400000000     0.938400000000     0          
C141     C      0.801900000000     0.686200000000     0.940700000000     0          
H142     H      0.791640000000     0.699720000000     0.919540000000     0          
C143     C      0.858700000000     0.577500000000     0.941310000000     0          
H144     H      0.865670000000     0.599980000000     0.925730000000     0          
H145     H      0.847530000000     0.558260000000     0.923920000000     0          
C146     C      0.844940000000     0.625700000000     0.038980000000     0          
H147     H      0.865650000000     0.607780000000     0.032110000000     0          
H148     H      0.854940000000     0.643670000000     0.058310000000     0          
C149     C      0.826900000000     0.687500000000     0.004100000000     0          
H150     H      0.833150000000     0.701300000000     0.026500000000     0          
C151     C      0.187100000000     0.793300000000     0.973600000000     0          
H152     H      0.189440000000     0.766380000000     0.974350000000     0          
C153     C      0.989000000000     0.882900000000     0.948400000000     0          
H154     H      0.987660000000     0.857820000000     0.938240000000     0          
Zr155    Zr     0.020210000000     0.970780000000     0.938040000000     0          
O156     O      0.078420000000     0.944040000000     0.934600000000     0          
O157     O      0.104790000000     0.947930000000     0.993470000000     0          
O158     O      0.169800000000     0.911270000000     0.968050000000     0          
O159     O      0.025460000000     0.945000000000     0.993220000000     0          
O160     O      0.009800000000     0.910770000000     0.921500000000     0          
C161     C      0.104870000000     0.939110000000     0.958790000000     0          
O162     O      0.971600000000     0.885470000000     0.984100000000     0          
C163     C      0.176520000000     0.871700000000     0.969810000000     0          
C164     C      0.167520000000     0.852200000000     0.003600000000     0          
C165     C      0.194360000000     0.853600000000     0.938400000000     0          
C166     C      0.198100000000     0.813800000000     0.940700000000     0          
H167     H      0.208360000000     0.800280000000     0.919540000000     0          
C168     C      0.141300000000     0.922500000000     0.941310000000     0          
H169     H      0.134330000000     0.900020000000     0.925730000000     0          
H170     H      0.152470000000     0.941740000000     0.923920000000     0          
C171     C      0.155060000000     0.874300000000     0.038980000000     0          
H172     H      0.134350000000     0.892220000000     0.032110000000     0          
H173     H      0.145060000000     0.856330000000     0.058310000000     0          
C174     C      0.173100000000     0.812500000000     0.004100000000     0          
H175     H      0.166850000000     0.798700000000     0.026500000000     0          
C176     C      0.687100000000     0.293300000000     0.473600000000     0          
H177     H      0.689440000000     0.266380000000     0.474350000000     0          
C178     C      0.489000000000     0.382900000000     0.448400000000     0          
H179     H      0.487660000000     0.357820000000     0.438240000000     0          
Zr180    Zr     0.520210000000     0.470780000000     0.438040000000     0          
O181     O      0.578420000000     0.444040000000     0.434600000000     0          
O182     O      0.604790000000     0.447930000000     0.493470000000     0          
O183     O      0.669800000000     0.411270000000     0.468050000000     0          
O184     O      0.525460000000     0.445000000000     0.493220000000     0          
O185     O      0.509800000000     0.410770000000     0.421500000000     0          
C186     C      0.604870000000     0.439110000000     0.458790000000     0          
O187     O      0.471600000000     0.385470000000     0.484100000000     0          
C188     C      0.676520000000     0.371700000000     0.469810000000     0          
C189     C      0.667520000000     0.352200000000     0.503600000000     0          
C190     C      0.694360000000     0.353600000000     0.438400000000     0          
C191     C      0.698100000000     0.313800000000     0.440700000000     0          
H192     H      0.708360000000     0.300280000000     0.419540000000     0          
C193     C      0.641300000000     0.422500000000     0.441310000000     0          
H194     H      0.634330000000     0.400020000000     0.425730000000     0          
H195     H      0.652470000000     0.441740000000     0.423920000000     0          
C196     C      0.655060000000     0.374300000000     0.538980000000     0          
H197     H      0.634350000000     0.392220000000     0.532110000000     0          
H198     H      0.645060000000     0.356330000000     0.558310000000     0          
C199     C      0.673100000000     0.312500000000     0.504100000000     0          
H200     H      0.666850000000     0.298700000000     0.526500000000     0          
C201     C      0.026400000000     0.687100000000     0.706700000000     0          
H202     H      0.025650000000     0.689440000000     0.733620000000     0          
C203     C      0.051600000000     0.489000000000     0.617100000000     0          
H204     H      0.061760000000     0.487660000000     0.642180000000     0          
Zr205    Zr     0.061960000000     0.520210000000     0.529220000000     0          
O206     O      0.065400000000     0.578420000000     0.555960000000     0          
O207     O      0.006530000000     0.604790000000     0.552070000000     0          
O208     O      0.031950000000     0.669800000000     0.588730000000     0          
O209     O      0.006780000000     0.525460000000     0.555000000000     0          
O210     O      0.078500000000     0.509800000000     0.589230000000     0          
C211     C      0.041210000000     0.604870000000     0.560890000000     0          
O212     O      0.015900000000     0.471600000000     0.614530000000     0          
C213     C      0.030190000000     0.676520000000     0.628300000000     0          
C214     C      0.996400000000     0.667520000000     0.647800000000     0          
C215     C      0.061600000000     0.694360000000     0.646400000000     0          
C216     C      0.059300000000     0.698100000000     0.686200000000     0          
H217     H      0.080460000000     0.708360000000     0.699720000000     0          
C218     C      0.058690000000     0.641300000000     0.577500000000     0          
H219     H      0.074270000000     0.634330000000     0.599980000000     0          
H220     H      0.076080000000     0.652470000000     0.558260000000     0          
C221     C      0.961020000000     0.655060000000     0.625700000000     0          
H222     H      0.967890000000     0.634350000000     0.607780000000     0          
H223     H      0.941690000000     0.645060000000     0.643670000000     0          
C224     C      0.995900000000     0.673100000000     0.687500000000     0          
H225     H      0.973500000000     0.666850000000     0.701300000000     0          
C226     C      0.526400000000     0.187100000000     0.206700000000     0          
H227     H      0.525650000000     0.189440000000     0.233620000000     0          
C228     C      0.551600000000     0.989000000000     0.117100000000     0          
H229     H      0.561760000000     0.987660000000     0.142180000000     0          
Zr230    Zr     0.561960000000     0.020210000000     0.029220000000     0          
O231     O      0.565400000000     0.078420000000     0.055960000000     0          
O232     O      0.506530000000     0.104790000000     0.052070000000     0          
O233     O      0.531950000000     0.169800000000     0.088730000000     0          
O234     O      0.506780000000     0.025460000000     0.055000000000     0          
O235     O      0.578500000000     0.009800000000     0.089230000000     0          
C236     C      0.541210000000     0.104870000000     0.060890000000     0          
O237     O      0.515900000000     0.971600000000     0.114530000000     0          
C238     C      0.530190000000     0.176520000000     0.128300000000     0          
C239     C      0.496400000000     0.167520000000     0.147800000000     0          
C240     C      0.561600000000     0.194360000000     0.146400000000     0          
C241     C      0.559300000000     0.198100000000     0.186200000000     0          
H242     H      0.580460000000     0.208360000000     0.199720000000     0          
C243     C      0.558690000000     0.141300000000     0.077500000000     0          
H244     H      0.574270000000     0.134330000000     0.099980000000     0          
H245     H      0.576080000000     0.152470000000     0.058260000000     0          
C246     C      0.461020000000     0.155060000000     0.125700000000     0          
H247     H      0.467890000000     0.134350000000     0.107780000000     0          
H248     H      0.441690000000     0.145060000000     0.143670000000     0          
C249     C      0.495900000000     0.173100000000     0.187500000000     0          
H250     H      0.473500000000     0.166850000000     0.201300000000     0          
C251     C      0.526400000000     0.812900000000     0.293300000000     0          
H252     H      0.525650000000     0.810560000000     0.266380000000     0          
C253     C      0.551600000000     0.011000000000     0.382900000000     0          
H254     H      0.561760000000     0.012340000000     0.357820000000     0          
Zr255    Zr     0.561960000000     0.979790000000     0.470780000000     0          
O256     O      0.565400000000     0.921580000000     0.444040000000     0          
O257     O      0.506530000000     0.895210000000     0.447930000000     0          
O258     O      0.531950000000     0.830200000000     0.411270000000     0          
O259     O      0.506780000000     0.974540000000     0.445000000000     0          
O260     O      0.578500000000     0.990200000000     0.410770000000     0          
C261     C      0.541210000000     0.895130000000     0.439110000000     0          
O262     O      0.515900000000     0.028400000000     0.385470000000     0          
C263     C      0.530190000000     0.823480000000     0.371700000000     0          
C264     C      0.496400000000     0.832480000000     0.352200000000     0          
C265     C      0.561600000000     0.805640000000     0.353600000000     0          
C266     C      0.559300000000     0.801900000000     0.313800000000     0          
H267     H      0.580460000000     0.791640000000     0.300280000000     0          
C268     C      0.558690000000     0.858700000000     0.422500000000     0          
H269     H      0.574270000000     0.865670000000     0.400020000000     0          
H270     H      0.576080000000     0.847530000000     0.441740000000     0          
C271     C      0.461020000000     0.844940000000     0.374300000000     0          
H272     H      0.467890000000     0.865650000000     0.392220000000     0          
H273     H      0.441690000000     0.854940000000     0.356330000000     0          
C274     C      0.495900000000     0.826900000000     0.312500000000     0          
H275     H      0.473500000000     0.833150000000     0.298700000000     0          
C276     C      0.026400000000     0.312900000000     0.793300000000     0          
H277     H      0.025650000000     0.310560000000     0.766380000000     0          
C278     C      0.051600000000     0.511000000000     0.882900000000     0          
H279     H      0.061760000000     0.512340000000     0.857820000000     0          
Zr280    Zr     0.061960000000     0.479790000000     0.970780000000     0          
O281     O      0.065400000000     0.421580000000     0.944040000000     0          
O282     O      0.006530000000     0.395210000000     0.947930000000     0          
O283     O      0.031950000000     0.330200000000     0.911270000000     0          
O284     O      0.006780000000     0.474540000000     0.945000000000     0          
O285     O      0.078500000000     0.490200000000     0.910770000000     0          
C286     C      0.041210000000     0.395130000000     0.939110000000     0          
O287     O      0.015900000000     0.528400000000     0.885470000000     0          
C288     C      0.030190000000     0.323480000000     0.871700000000     0          
C289     C      0.996400000000     0.332480000000     0.852200000000     0          
C290     C      0.061600000000     0.305640000000     0.853600000000     0          
C291     C      0.059300000000     0.301900000000     0.813800000000     0          
H292     H      0.080460000000     0.291640000000     0.800280000000     0          
C293     C      0.058690000000     0.358700000000     0.922500000000     0          
H294     H      0.074270000000     0.365670000000     0.900020000000     0          
H295     H      0.076080000000     0.347530000000     0.941740000000     0          
C296     C      0.961020000000     0.344940000000     0.874300000000     0          
H297     H      0.967890000000     0.365650000000     0.892220000000     0          
H298     H      0.941690000000     0.354940000000     0.856330000000     0          
C299     C      0.995900000000     0.326900000000     0.812500000000     0          
H300     H      0.973500000000     0.333150000000     0.798700000000     0          
C301     C      0.473600000000     0.312900000000     0.206700000000     0          
H302     H      0.474350000000     0.310560000000     0.233620000000     0          
C303     C      0.448400000000     0.511000000000     0.117100000000     0          
H304     H      0.438240000000     0.512340000000     0.142180000000     0          
Zr305    Zr     0.438040000000     0.479790000000     0.029220000000     0          
O306     O      0.434600000000     0.421580000000     0.055960000000     0          
O307     O      0.493470000000     0.395210000000     0.052070000000     0          
O308     O      0.468050000000     0.330200000000     0.088730000000     0          
O309     O      0.493220000000     0.474540000000     0.055000000000     0          
O310     O      0.421500000000     0.490200000000     0.089230000000     0          
C311     C      0.458790000000     0.395130000000     0.060890000000     0          
O312     O      0.484100000000     0.528400000000     0.114530000000     0          
C313     C      0.469810000000     0.323480000000     0.128300000000     0          
C314     C      0.503600000000     0.332480000000     0.147800000000     0          
C315     C      0.438400000000     0.305640000000     0.146400000000     0          
C316     C      0.440700000000     0.301900000000     0.186200000000     0          
H317     H      0.419540000000     0.291640000000     0.199720000000     0          
C318     C      0.441310000000     0.358700000000     0.077500000000     0          
H319     H      0.425730000000     0.365670000000     0.099980000000     0          
H320     H      0.423920000000     0.347530000000     0.058260000000     0          
C321     C      0.538980000000     0.344940000000     0.125700000000     0          
H322     H      0.532110000000     0.365650000000     0.107780000000     0          
H323     H      0.558310000000     0.354940000000     0.143670000000     0          
C324     C      0.504100000000     0.326900000000     0.187500000000     0          
H325     H      0.526500000000     0.333150000000     0.201300000000     0          
C326     C      0.973600000000     0.812900000000     0.706700000000     0          
H327     H      0.974350000000     0.810560000000     0.733620000000     0          
C328     C      0.948400000000     0.011000000000     0.617100000000     0          
H329     H      0.938240000000     0.012340000000     0.642180000000     0          
Zr330    Zr     0.938040000000     0.979790000000     0.529220000000     0          
O331     O      0.934600000000     0.921580000000     0.555960000000     0          
O332     O      0.993470000000     0.895210000000     0.552070000000     0          
O333     O      0.968050000000     0.830200000000     0.588730000000     0          
O334     O      0.993220000000     0.974540000000     0.555000000000     0          
O335     O      0.921500000000     0.990200000000     0.589230000000     0          
C336     C      0.958790000000     0.895130000000     0.560890000000     0          
O337     O      0.984100000000     0.028400000000     0.614530000000     0          
C338     C      0.969810000000     0.823480000000     0.628300000000     0          
C339     C      0.003600000000     0.832480000000     0.647800000000     0          
C340     C      0.938400000000     0.805640000000     0.646400000000     0          
C341     C      0.940700000000     0.801900000000     0.686200000000     0          
H342     H      0.919540000000     0.791640000000     0.699720000000     0          
C343     C      0.941310000000     0.858700000000     0.577500000000     0          
H344     H      0.925730000000     0.865670000000     0.599980000000     0          
H345     H      0.923920000000     0.847530000000     0.558260000000     0          
C346     C      0.038980000000     0.844940000000     0.625700000000     0          
H347     H      0.032110000000     0.865650000000     0.607780000000     0          
H348     H      0.058310000000     0.854940000000     0.643670000000     0          
C349     C      0.004100000000     0.826900000000     0.687500000000     0          
H350     H      0.026500000000     0.833150000000     0.701300000000     0          
C351     C      0.973600000000     0.187100000000     0.793300000000     0          
H352     H      0.974350000000     0.189440000000     0.766380000000     0          
C353     C      0.948400000000     0.989000000000     0.882900000000     0          
H354     H      0.938240000000     0.987660000000     0.857820000000     0          
Zr355    Zr     0.938040000000     0.020210000000     0.970780000000     0          
O356     O      0.934600000000     0.078420000000     0.944040000000     0          
O357     O      0.993470000000     0.104790000000     0.947930000000     0          
O358     O      0.968050000000     0.169800000000     0.911270000000     0          
O359     O      0.993220000000     0.025460000000     0.945000000000     0          
O360     O      0.921500000000     0.009800000000     0.910770000000     0          
C361     C      0.958790000000     0.104870000000     0.939110000000     0          
O362     O      0.984100000000     0.971600000000     0.885470000000     0          
C363     C      0.969810000000     0.176520000000     0.871700000000     0          
C364     C      0.003600000000     0.167520000000     0.852200000000     0          
C365     C      0.938400000000     0.194360000000     0.853600000000     0          
C366     C      0.940700000000     0.198100000000     0.813800000000     0          
H367     H      0.919540000000     0.208360000000     0.800280000000     0          
C368     C      0.941310000000     0.141300000000     0.922500000000     0          
H369     H      0.925730000000     0.134330000000     0.900020000000     0          
H370     H      0.923920000000     0.152470000000     0.941740000000     0          
C371     C      0.038980000000     0.155060000000     0.874300000000     0          
H372     H      0.032110000000     0.134350000000     0.892220000000     0          
H373     H      0.058310000000     0.145060000000     0.856330000000     0          
C374     C      0.004100000000     0.173100000000     0.812500000000     0          
H375     H      0.026500000000     0.166850000000     0.798700000000     0          
C376     C      0.473600000000     0.687100000000     0.293300000000     0          
H377     H      0.474350000000     0.689440000000     0.266380000000     0          
C378     C      0.448400000000     0.489000000000     0.382900000000     0          
H379     H      0.438240000000     0.487660000000     0.357820000000     0          
Zr380    Zr     0.438040000000     0.520210000000     0.470780000000     0          
O381     O      0.434600000000     0.578420000000     0.444040000000     0          
O382     O      0.493470000000     0.604790000000     0.447930000000     0          
O383     O      0.468050000000     0.669800000000     0.411270000000     0          
O384     O      0.493220000000     0.525460000000     0.445000000000     0          
O385     O      0.421500000000     0.509800000000     0.410770000000     0          
C386     C      0.458790000000     0.604870000000     0.439110000000     0          
O387     O      0.484100000000     0.471600000000     0.385470000000     0          
C388     C      0.469810000000     0.676520000000     0.371700000000     0          
C389     C      0.503600000000     0.667520000000     0.352200000000     0          
C390     C      0.438400000000     0.694360000000     0.353600000000     0          
C391     C      0.440700000000     0.698100000000     0.313800000000     0          
H392     H      0.419540000000     0.708360000000     0.300280000000     0          
C393     C      0.441310000000     0.641300000000     0.422500000000     0          
H394     H      0.425730000000     0.634330000000     0.400020000000     0          
H395     H      0.423920000000     0.652470000000     0.441740000000     0          
C396     C      0.538980000000     0.655060000000     0.374300000000     0          
H397     H      0.532110000000     0.634350000000     0.392220000000     0          
H398     H      0.558310000000     0.645060000000     0.356330000000     0          
C399     C      0.504100000000     0.673100000000     0.312500000000     0          
H400     H      0.526500000000     0.666850000000     0.298700000000     0          
C401     C      0.706700000000     0.026400000000     0.687100000000     0          
H402     H      0.733620000000     0.025650000000     0.689440000000     0          
C403     C      0.617100000000     0.051600000000     0.489000000000     0          
H404     H      0.642180000000     0.061760000000     0.487660000000     0          
Zr405    Zr     0.529220000000     0.061960000000     0.520210000000     0          
O406     O      0.555960000000     0.065400000000     0.578420000000     0          
O407     O      0.552070000000     0.006530000000     0.604790000000     0          
O408     O      0.588730000000     0.031950000000     0.669800000000     0          
O409     O      0.555000000000     0.006780000000     0.525460000000     0          
O410     O      0.589230000000     0.078500000000     0.509800000000     0          
C411     C      0.560890000000     0.041210000000     0.604870000000     0          
O412     O      0.614530000000     0.015900000000     0.471600000000     0          
C413     C      0.628300000000     0.030190000000     0.676520000000     0          
C414     C      0.647800000000     0.996400000000     0.667520000000     0          
C415     C      0.646400000000     0.061600000000     0.694360000000     0          
C416     C      0.686200000000     0.059300000000     0.698100000000     0          
H417     H      0.699720000000     0.080460000000     0.708360000000     0          
C418     C      0.577500000000     0.058690000000     0.641300000000     0          
H419     H      0.599980000000     0.074270000000     0.634330000000     0          
H420     H      0.558260000000     0.076080000000     0.652470000000     0          
C421     C      0.625700000000     0.961020000000     0.655060000000     0          
H422     H      0.607780000000     0.967890000000     0.634350000000     0          
H423     H      0.643670000000     0.941690000000     0.645060000000     0          
C424     C      0.687500000000     0.995900000000     0.673100000000     0          
H425     H      0.701300000000     0.973500000000     0.666850000000     0          
C426     C      0.206700000000     0.526400000000     0.187100000000     0          
H427     H      0.233620000000     0.525650000000     0.189440000000     0          
C428     C      0.117100000000     0.551600000000     0.989000000000     0          
H429     H      0.142180000000     0.561760000000     0.987660000000     0          
Zr430    Zr     0.029220000000     0.561960000000     0.020210000000     0          
O431     O      0.055960000000     0.565400000000     0.078420000000     0          
O432     O      0.052070000000     0.506530000000     0.104790000000     0          
O433     O      0.088730000000     0.531950000000     0.169800000000     0          
O434     O      0.055000000000     0.506780000000     0.025460000000     0          
O435     O      0.089230000000     0.578500000000     0.009800000000     0          
C436     C      0.060890000000     0.541210000000     0.104870000000     0          
O437     O      0.114530000000     0.515900000000     0.971600000000     0          
C438     C      0.128300000000     0.530190000000     0.176520000000     0          
C439     C      0.147800000000     0.496400000000     0.167520000000     0          
C440     C      0.146400000000     0.561600000000     0.194360000000     0          
C441     C      0.186200000000     0.559300000000     0.198100000000     0          
H442     H      0.199720000000     0.580460000000     0.208360000000     0          
C443     C      0.077500000000     0.558690000000     0.141300000000     0          
H444     H      0.099980000000     0.574270000000     0.134330000000     0          
H445     H      0.058260000000     0.576080000000     0.152470000000     0          
C446     C      0.125700000000     0.461020000000     0.155060000000     0          
H447     H      0.107780000000     0.467890000000     0.134350000000     0          
H448     H      0.143670000000     0.441690000000     0.145060000000     0          
C449     C      0.187500000000     0.495900000000     0.173100000000     0          
H450     H      0.201300000000     0.473500000000     0.166850000000     0          
C451     C      0.293300000000     0.526400000000     0.812900000000     0          
H452     H      0.266380000000     0.525650000000     0.810560000000     0          
C453     C      0.382900000000     0.551600000000     0.011000000000     0          
H454     H      0.357820000000     0.561760000000     0.012340000000     0          
Zr455    Zr     0.470780000000     0.561960000000     0.979790000000     0          
O456     O      0.444040000000     0.565400000000     0.921580000000     0          
O457     O      0.447930000000     0.506530000000     0.895210000000     0          
O458     O      0.411270000000     0.531950000000     0.830200000000     0          
O459     O      0.445000000000     0.506780000000     0.974540000000     0          
O460     O      0.410770000000     0.578500000000     0.990200000000     0          
C461     C      0.439110000000     0.541210000000     0.895130000000     0          
O462     O      0.385470000000     0.515900000000     0.028400000000     0          
C463     C      0.371700000000     0.530190000000     0.823480000000     0          
C464     C      0.352200000000     0.496400000000     0.832480000000     0          
C465     C      0.353600000000     0.561600000000     0.805640000000     0          
C466     C      0.313800000000     0.559300000000     0.801900000000     0          
H467     H      0.300280000000     0.580460000000     0.791640000000     0          
C468     C      0.422500000000     0.558690000000     0.858700000000     0          
H469     H      0.400020000000     0.574270000000     0.865670000000     0          
H470     H      0.441740000000     0.576080000000     0.847530000000     0          
C471     C      0.374300000000     0.461020000000     0.844940000000     0          
H472     H      0.392220000000     0.467890000000     0.865650000000     0          
H473     H      0.356330000000     0.441690000000     0.854940000000     0          
C474     C      0.312500000000     0.495900000000     0.826900000000     0          
H475     H      0.298700000000     0.473500000000     0.833150000000     0          
C476     C      0.793300000000     0.026400000000     0.312900000000     0          
H477     H      0.766380000000     0.025650000000     0.310560000000     0          
C478     C      0.882900000000     0.051600000000     0.511000000000     0          
H479     H      0.857820000000     0.061760000000     0.512340000000     0          
Zr480    Zr     0.970780000000     0.061960000000     0.479790000000     0          
O481     O      0.944040000000     0.065400000000     0.421580000000     0          
O482     O      0.947930000000     0.006530000000     0.395210000000     0          
O483     O      0.911270000000     0.031950000000     0.330200000000     0          
O484     O      0.945000000000     0.006780000000     0.474540000000     0          
O485     O      0.910770000000     0.078500000000     0.490200000000     0          
C486     C      0.939110000000     0.041210000000     0.395130000000     0          
O487     O      0.885470000000     0.015900000000     0.528400000000     0          
C488     C      0.871700000000     0.030190000000     0.323480000000     0          
C489     C      0.852200000000     0.996400000000     0.332480000000     0          
C490     C      0.853600000000     0.061600000000     0.305640000000     0          
C491     C      0.813800000000     0.059300000000     0.301900000000     0          
H492     H      0.800280000000     0.080460000000     0.291640000000     0          
C493     C      0.922500000000     0.058690000000     0.358700000000     0          
H494     H      0.900020000000     0.074270000000     0.365670000000     0          
H495     H      0.941740000000     0.076080000000     0.347530000000     0          
C496     C      0.874300000000     0.961020000000     0.344940000000     0          
H497     H      0.892220000000     0.967890000000     0.365650000000     0          
H498     H      0.856330000000     0.941690000000     0.354940000000     0          
C499     C      0.812500000000     0.995900000000     0.326900000000     0          
H500     H      0.798700000000     0.973500000000     0.333150000000     0          
C501     C      0.206700000000     0.473600000000     0.312900000000     0          
H502     H      0.233620000000     0.474350000000     0.310560000000     0          
C503     C      0.117100000000     0.448400000000     0.511000000000     0          
H504     H      0.142180000000     0.438240000000     0.512340000000     0          
Zr505    Zr     0.029220000000     0.438040000000     0.479790000000     0          
O506     O      0.055960000000     0.434600000000     0.421580000000     0          
O507     O      0.052070000000     0.493470000000     0.395210000000     0          
O508     O      0.088730000000     0.468050000000     0.330200000000     0          
O509     O      0.055000000000     0.493220000000     0.474540000000     0          
O510     O      0.089230000000     0.421500000000     0.490200000000     0          
C511     C      0.060890000000     0.458790000000     0.395130000000     0          
O512     O      0.114530000000     0.484100000000     0.528400000000     0          
C513     C      0.128300000000     0.469810000000     0.323480000000     0          
C514     C      0.147800000000     0.503600000000     0.332480000000     0          
C515     C      0.146400000000     0.438400000000     0.305640000000     0          
C516     C      0.186200000000     0.440700000000     0.301900000000     0          
H517     H      0.199720000000     0.419540000000     0.291640000000     0          
C518     C      0.077500000000     0.441310000000     0.358700000000     0          
H519     H      0.099980000000     0.425730000000     0.365670000000     0          
H520     H      0.058260000000     0.423920000000     0.347530000000     0          
C521     C      0.125700000000     0.538980000000     0.344940000000     0          
H522     H      0.107780000000     0.532110000000     0.365650000000     0          
H523     H      0.143670000000     0.558310000000     0.354940000000     0          
C524     C      0.187500000000     0.504100000000     0.326900000000     0          
H525     H      0.201300000000     0.526500000000     0.333150000000     0          
C526     C      0.706700000000     0.973600000000     0.812900000000     0          
H527     H      0.733620000000     0.974350000000     0.810560000000     0          
C528     C      0.617100000000     0.948400000000     0.011000000000     0          
H529     H      0.642180000000     0.938240000000     0.012340000000     0          
Zr530    Zr     0.529220000000     0.938040000000     0.979790000000     0          
O531     O      0.555960000000     0.934600000000     0.921580000000     0          
O532     O      0.552070000000     0.993470000000     0.895210000000     0          
O533     O      0.588730000000     0.968050000000     0.830200000000     0          
O534     O      0.555000000000     0.993220000000     0.974540000000     0          
O535     O      0.589230000000     0.921500000000     0.990200000000     0          
C536     C      0.560890000000     0.958790000000     0.895130000000     0          
O537     O      0.614530000000     0.984100000000     0.028400000000     0          
C538     C      0.628300000000     0.969810000000     0.823480000000     0          
C539     C      0.647800000000     0.003600000000     0.832480000000     0          
C540     C      0.646400000000     0.938400000000     0.805640000000     0          
C541     C      0.686200000000     0.940700000000     0.801900000000     0          
H542     H      0.699720000000     0.919540000000     0.791640000000     0          
C543     C      0.577500000000     0.941310000000     0.858700000000     0          
H544     H      0.599980000000     0.925730000000     0.865670000000     0          
H545     H      0.558260000000     0.923920000000     0.847530000000     0          
C546     C      0.625700000000     0.038980000000     0.844940000000     0          
H547     H      0.607780000000     0.032110000000     0.865650000000     0          
H548     H      0.643670000000     0.058310000000     0.854940000000     0          
C549     C      0.687500000000     0.004100000000     0.826900000000     0          
H550     H      0.701300000000     0.026500000000     0.833150000000     0          
C551     C      0.793300000000     0.973600000000     0.187100000000     0          
H552     H      0.766380000000     0.974350000000     0.189440000000     0          
C553     C      0.882900000000     0.948400000000     0.989000000000     0          
H554     H      0.857820000000     0.938240000000     0.987660000000     0          
Zr555    Zr     0.970780000000     0.938040000000     0.020210000000     0          
O556     O      0.944040000000     0.934600000000     0.078420000000     0          
O557     O      0.947930000000     0.993470000000     0.104790000000     0          
O558     O      0.911270000000     0.968050000000     0.169800000000     0          
O559     O      0.945000000000     0.993220000000     0.025460000000     0          
O560     O      0.910770000000     0.921500000000     0.009800000000     0          
C561     C      0.939110000000     0.958790000000     0.104870000000     0          
O562     O      0.885470000000     0.984100000000     0.971600000000     0          
C563     C      0.871700000000     0.969810000000     0.176520000000     0          
C564     C      0.852200000000     0.003600000000     0.167520000000     0          
C565     C      0.853600000000     0.938400000000     0.194360000000     0          
C566     C      0.813800000000     0.940700000000     0.198100000000     0          
H567     H      0.800280000000     0.919540000000     0.208360000000     0          
C568     C      0.922500000000     0.941310000000     0.141300000000     0          
H569     H      0.900020000000     0.925730000000     0.134330000000     0          
H570     H      0.941740000000     0.923920000000     0.152470000000     0          
C571     C      0.874300000000     0.038980000000     0.155060000000     0          
H572     H      0.892220000000     0.032110000000     0.134350000000     0          
H573     H      0.856330000000     0.058310000000     0.145060000000     0          
C574     C      0.812500000000     0.004100000000     0.173100000000     0          
H575     H      0.798700000000     0.026500000000     0.166850000000     0          
C576     C      0.293300000000     0.473600000000     0.687100000000     0          
H577     H      0.266380000000     0.474350000000     0.689440000000     0          
C578     C      0.382900000000     0.448400000000     0.489000000000     0          
H579     H      0.357820000000     0.438240000000     0.487660000000     0          
Zr580    Zr     0.470780000000     0.438040000000     0.520210000000     0          
O581     O      0.444040000000     0.434600000000     0.578420000000     0          
O582     O      0.447930000000     0.493470000000     0.604790000000     0          
O583     O      0.411270000000     0.468050000000     0.669800000000     0          
O584     O      0.445000000000     0.493220000000     0.525460000000     0          
O585     O      0.410770000000     0.421500000000     0.509800000000     0          
C586     C      0.439110000000     0.458790000000     0.604870000000     0          
O587     O      0.385470000000     0.484100000000     0.471600000000     0          
C588     C      0.371700000000     0.469810000000     0.676520000000     0          
C589     C      0.352200000000     0.503600000000     0.667520000000     0          
C590     C      0.353600000000     0.438400000000     0.694360000000     0          
C591     C      0.313800000000     0.440700000000     0.698100000000     0          
H592     H      0.300280000000     0.419540000000     0.708360000000     0          
C593     C      0.422500000000     0.441310000000     0.641300000000     0          
H594     H      0.400020000000     0.425730000000     0.634330000000     0          
H595     H      0.441740000000     0.423920000000     0.652470000000     0          
C596     C      0.374300000000     0.538980000000     0.655060000000     0          
H597     H      0.392220000000     0.532110000000     0.634350000000     0          
H598     H      0.356330000000     0.558310000000     0.645060000000     0          
C599     C      0.312500000000     0.504100000000     0.673100000000     0          
H600     H      0.298700000000     0.526500000000     0.666850000000     0          
C601     C      0.456700000000     0.937100000000     0.223600000000     0          
H602     H      0.483620000000     0.939440000000     0.224350000000     0          
C603     C      0.367100000000     0.739000000000     0.198400000000     0          
H604     H      0.392180000000     0.737660000000     0.188240000000     0          
Zr605    Zr     0.279220000000     0.770210000000     0.188040000000     0          
O606     O      0.305960000000     0.828420000000     0.184600000000     0          
O607     O      0.302070000000     0.854790000000     0.243470000000     0          
O608     O      0.338730000000     0.919800000000     0.218050000000     0          
O609     O      0.305000000000     0.775460000000     0.243220000000     0          
O610     O      0.339230000000     0.759800000000     0.171500000000     0          
C611     C      0.310890000000     0.854870000000     0.208790000000     0          
O612     O      0.364530000000     0.721600000000     0.234100000000     0          
C613     C      0.378300000000     0.926520000000     0.219810000000     0          
C614     C      0.397800000000     0.917520000000     0.253600000000     0          
C615     C      0.396400000000     0.944360000000     0.188400000000     0          
C616     C      0.436200000000     0.948100000000     0.190700000000     0          
H617     H      0.449720000000     0.958360000000     0.169540000000     0          
C618     C      0.327500000000     0.891300000000     0.191310000000     0          
H619     H      0.349980000000     0.884330000000     0.175730000000     0          
H620     H      0.308260000000     0.902470000000     0.173920000000     0          
C621     C      0.375700000000     0.905060000000     0.288980000000     0          
H622     H      0.357780000000     0.884350000000     0.282110000000     0          
H623     H      0.393670000000     0.895060000000     0.308310000000     0          
C624     C      0.437500000000     0.923100000000     0.254100000000     0          
H625     H      0.451300000000     0.916850000000     0.276500000000     0          
C626     C      0.956700000000     0.437100000000     0.723600000000     0          
H627     H      0.983620000000     0.439440000000     0.724350000000     0          
C628     C      0.867100000000     0.239000000000     0.698400000000     0          
H629     H      0.892180000000     0.237660000000     0.688240000000     0          
Zr630    Zr     0.779220000000     0.270210000000     0.688040000000     0          
O631     O      0.805960000000     0.328420000000     0.684600000000     0          
O632     O      0.802070000000     0.354790000000     0.743470000000     0          
O633     O      0.838730000000     0.419800000000     0.718050000000     0          
O634     O      0.805000000000     0.275460000000     0.743220000000     0          
O635     O      0.839230000000     0.259800000000     0.671500000000     0          
C636     C      0.810890000000     0.354870000000     0.708790000000     0          
O637     O      0.864530000000     0.221600000000     0.734100000000     0          
C638     C      0.878300000000     0.426520000000     0.719810000000     0          
C639     C      0.897800000000     0.417520000000     0.753600000000     0          
C640     C      0.896400000000     0.444360000000     0.688400000000     0          
C641     C      0.936200000000     0.448100000000     0.690700000000     0          
H642     H      0.949720000000     0.458360000000     0.669540000000     0          
C643     C      0.827500000000     0.391300000000     0.691310000000     0          
H644     H      0.849980000000     0.384330000000     0.675730000000     0          
H645     H      0.808260000000     0.402470000000     0.673920000000     0          
C646     C      0.875700000000     0.405060000000     0.788980000000     0          
H647     H      0.857780000000     0.384350000000     0.782110000000     0          
H648     H      0.893670000000     0.395060000000     0.808310000000     0          
C649     C      0.937500000000     0.423100000000     0.754100000000     0          
H650     H      0.951300000000     0.416850000000     0.776500000000     0          
C651     C      0.043300000000     0.062900000000     0.723600000000     0          
H652     H      0.016380000000     0.060560000000     0.724350000000     0          
C653     C      0.132900000000     0.261000000000     0.698400000000     0          
H654     H      0.107820000000     0.262340000000     0.688240000000     0          
Zr655    Zr     0.220780000000     0.229790000000     0.688040000000     0          
O656     O      0.194040000000     0.171580000000     0.684600000000     0          
O657     O      0.197930000000     0.145210000000     0.743470000000     0          
O658     O      0.161270000000     0.080200000000     0.718050000000     0          
O659     O      0.195000000000     0.224540000000     0.743220000000     0          
O660     O      0.160770000000     0.240200000000     0.671500000000     0          
C661     C      0.189110000000     0.145130000000     0.708790000000     0          
O662     O      0.135470000000     0.278400000000     0.734100000000     0          
C663     C      0.121700000000     0.073480000000     0.719810000000     0          
C664     C      0.102200000000     0.082480000000     0.753600000000     0          
C665     C      0.103600000000     0.055640000000     0.688400000000     0          
C666     C      0.063800000000     0.051900000000     0.690700000000     0          
H667     H      0.050280000000     0.041640000000     0.669540000000     0          
C668     C      0.172500000000     0.108700000000     0.691310000000     0          
H669     H      0.150020000000     0.115670000000     0.675730000000     0          
H670     H      0.191740000000     0.097530000000     0.673920000000     0          
C671     C      0.124300000000     0.094940000000     0.788980000000     0          
H672     H      0.142220000000     0.115650000000     0.782110000000     0          
H673     H      0.106330000000     0.104940000000     0.808310000000     0          
C674     C      0.062500000000     0.076900000000     0.754100000000     0          
H675     H      0.048700000000     0.083150000000     0.776500000000     0          
C676     C      0.543300000000     0.562900000000     0.223600000000     0          
H677     H      0.516380000000     0.560560000000     0.224350000000     0          
C678     C      0.632900000000     0.761000000000     0.198400000000     0          
H679     H      0.607820000000     0.762340000000     0.188240000000     0          
Zr680    Zr     0.720780000000     0.729790000000     0.188040000000     0          
O681     O      0.694040000000     0.671580000000     0.184600000000     0          
O682     O      0.697930000000     0.645210000000     0.243470000000     0          
O683     O      0.661270000000     0.580200000000     0.218050000000     0          
O684     O      0.695000000000     0.724540000000     0.243220000000     0          
O685     O      0.660770000000     0.740200000000     0.171500000000     0          
C686     C      0.689110000000     0.645130000000     0.208790000000     0          
O687     O      0.635470000000     0.778400000000     0.234100000000     0          
C688     C      0.621700000000     0.573480000000     0.219810000000     0          
C689     C      0.602200000000     0.582480000000     0.253600000000     0          
C690     C      0.603600000000     0.555640000000     0.188400000000     0          
C691     C      0.563800000000     0.551900000000     0.190700000000     0          
H692     H      0.550280000000     0.541640000000     0.169540000000     0          
C693     C      0.672500000000     0.608700000000     0.191310000000     0          
H694     H      0.650020000000     0.615670000000     0.175730000000     0          
H695     H      0.691740000000     0.597530000000     0.173920000000     0          
C696     C      0.624300000000     0.594940000000     0.288980000000     0          
H697     H      0.642220000000     0.615650000000     0.282110000000     0          
H698     H      0.606330000000     0.604940000000     0.308310000000     0          
C699     C      0.562500000000     0.576900000000     0.254100000000     0          
H700     H      0.548700000000     0.583150000000     0.276500000000     0          
C701     C      0.956700000000     0.562900000000     0.776400000000     0          
H702     H      0.983620000000     0.560560000000     0.775650000000     0          
C703     C      0.867100000000     0.761000000000     0.801600000000     0          
H704     H      0.892180000000     0.762340000000     0.811760000000     0          
Zr705    Zr     0.779220000000     0.729790000000     0.811960000000     0          
O706     O      0.805960000000     0.671580000000     0.815400000000     0          
O707     O      0.802070000000     0.645210000000     0.756530000000     0          
O708     O      0.838730000000     0.580200000000     0.781950000000     0          
O709     O      0.805000000000     0.724540000000     0.756780000000     0          
O710     O      0.839230000000     0.740200000000     0.828500000000     0          
C711     C      0.810890000000     0.645130000000     0.791210000000     0          
O712     O      0.864530000000     0.778400000000     0.765900000000     0          
C713     C      0.878300000000     0.573480000000     0.780190000000     0          
C714     C      0.897800000000     0.582480000000     0.746400000000     0          
C715     C      0.896400000000     0.555640000000     0.811600000000     0          
C716     C      0.936200000000     0.551900000000     0.809300000000     0          
H717     H      0.949720000000     0.541640000000     0.830460000000     0          
C718     C      0.827500000000     0.608700000000     0.808690000000     0          
H719     H      0.849980000000     0.615670000000     0.824270000000     0          
H720     H      0.808260000000     0.597530000000     0.826080000000     0          
C721     C      0.875700000000     0.594940000000     0.711020000000     0          
H722     H      0.857780000000     0.615650000000     0.717890000000     0          
H723     H      0.893670000000     0.604940000000     0.691690000000     0          
C724     C      0.937500000000     0.576900000000     0.745900000000     0          
H725     H      0.951300000000     0.583150000000     0.723500000000     0          
C726     C      0.456700000000     0.062900000000     0.276400000000     0          
H727     H      0.483620000000     0.060560000000     0.275650000000     0          
C728     C      0.367100000000     0.261000000000     0.301600000000     0          
H729     H      0.392180000000     0.262340000000     0.311760000000     0          
Zr730    Zr     0.279220000000     0.229790000000     0.311960000000     0          
O731     O      0.305960000000     0.171580000000     0.315400000000     0          
O732     O      0.302070000000     0.145210000000     0.256530000000     0          
O733     O      0.338730000000     0.080200000000     0.281950000000     0          
O734     O      0.305000000000     0.224540000000     0.256780000000     0          
O735     O      0.339230000000     0.240200000000     0.328500000000     0          
C736     C      0.310890000000     0.145130000000     0.291210000000     0          
O737     O      0.364530000000     0.278400000000     0.265900000000     0          
C738     C      0.378300000000     0.073480000000     0.280190000000     0          
C739     C      0.397800000000     0.082480000000     0.246400000000     0          
C740     C      0.396400000000     0.055640000000     0.311600000000     0          
C741     C      0.436200000000     0.051900000000     0.309300000000     0          
H742     H      0.449720000000     0.041640000000     0.330460000000     0          
C743     C      0.327500000000     0.108700000000     0.308690000000     0          
H744     H      0.349980000000     0.115670000000     0.324270000000     0          
H745     H      0.308260000000     0.097530000000     0.326080000000     0          
C746     C      0.375700000000     0.094940000000     0.211020000000     0          
H747     H      0.357780000000     0.115650000000     0.217890000000     0          
H748     H      0.393670000000     0.104940000000     0.191690000000     0          
C749     C      0.437500000000     0.076900000000     0.245900000000     0          
H750     H      0.451300000000     0.083150000000     0.223500000000     0          
C751     C      0.543300000000     0.437100000000     0.276400000000     0          
H752     H      0.516380000000     0.439440000000     0.275650000000     0          
C753     C      0.632900000000     0.239000000000     0.301600000000     0          
H754     H      0.607820000000     0.237660000000     0.311760000000     0          
Zr755    Zr     0.720780000000     0.270210000000     0.311960000000     0          
O756     O      0.694040000000     0.328420000000     0.315400000000     0          
O757     O      0.697930000000     0.354790000000     0.256530000000     0          
O758     O      0.661270000000     0.419800000000     0.281950000000     0          
O759     O      0.695000000000     0.275460000000     0.256780000000     0          
O760     O      0.660770000000     0.259800000000     0.328500000000     0          
C761     C      0.689110000000     0.354870000000     0.291210000000     0          
O762     O      0.635470000000     0.221600000000     0.265900000000     0          
C763     C      0.621700000000     0.426520000000     0.280190000000     0          
C764     C      0.602200000000     0.417520000000     0.246400000000     0          
C765     C      0.603600000000     0.444360000000     0.311600000000     0          
C766     C      0.563800000000     0.448100000000     0.309300000000     0          
H767     H      0.550280000000     0.458360000000     0.330460000000     0          
C768     C      0.672500000000     0.391300000000     0.308690000000     0          
H769     H      0.650020000000     0.384330000000     0.324270000000     0          
H770     H      0.691740000000     0.402470000000     0.326080000000     0          
C771     C      0.624300000000     0.405060000000     0.211020000000     0          
H772     H      0.642220000000     0.384350000000     0.217890000000     0          
H773     H      0.606330000000     0.395060000000     0.191690000000     0          
C774     C      0.562500000000     0.423100000000     0.245900000000     0          
H775     H      0.548700000000     0.416850000000     0.223500000000     0          
C776     C      0.043300000000     0.937100000000     0.776400000000     0          
H777     H      0.016380000000     0.939440000000     0.775650000000     0          
C778     C      0.132900000000     0.739000000000     0.801600000000     0          
H779     H      0.107820000000     0.737660000000     0.811760000000     0          
Zr780    Zr     0.220780000000     0.770210000000     0.811960000000     0          
O781     O      0.194040000000     0.828420000000     0.815400000000     0          
O782     O      0.197930000000     0.854790000000     0.756530000000     0          
O783     O      0.161270000000     0.919800000000     0.781950000000     0          
O784     O      0.195000000000     0.775460000000     0.756780000000     0          
O785     O      0.160770000000     0.759800000000     0.828500000000     0          
C786     C      0.189110000000     0.854870000000     0.791210000000     0          
O787     O      0.135470000000     0.721600000000     0.765900000000     0          
C788     C      0.121700000000     0.926520000000     0.780190000000     0          
C789     C      0.102200000000     0.917520000000     0.746400000000     0          
C790     C      0.103600000000     0.944360000000     0.811600000000     0          
C791     C      0.063800000000     0.948100000000     0.809300000000     0          
H792     H      0.050280000000     0.958360000000     0.830460000000     0          
C793     C      0.172500000000     0.891300000000     0.808690000000     0          
H794     H      0.150020000000     0.884330000000     0.824270000000     0          
H795     H      0.191740000000     0.902470000000     0.826080000000     0          
C796     C      0.124300000000     0.905060000000     0.711020000000     0          
H797     H      0.142220000000     0.884350000000     0.717890000000     0          
H798     H      0.106330000000     0.895060000000     0.691690000000     0          
C799     C      0.062500000000     0.923100000000     0.745900000000     0          
H800     H      0.048700000000     0.916850000000     0.723500000000     0          
C801     C      0.437100000000     0.276400000000     0.543300000000     0          
H802     H      0.439440000000     0.275650000000     0.516380000000     0          
C803     C      0.239000000000     0.301600000000     0.632900000000     0          
H804     H      0.237660000000     0.311760000000     0.607820000000     0          
Zr805    Zr     0.270210000000     0.311960000000     0.720780000000     0          
O806     O      0.328420000000     0.315400000000     0.694040000000     0          
O807     O      0.354790000000     0.256530000000     0.697930000000     0          
O808     O      0.419800000000     0.281950000000     0.661270000000     0          
O809     O      0.275460000000     0.256780000000     0.695000000000     0          
O810     O      0.259800000000     0.328500000000     0.660770000000     0          
C811     C      0.354870000000     0.291210000000     0.689110000000     0          
O812     O      0.221600000000     0.265900000000     0.635470000000     0          
C813     C      0.426520000000     0.280190000000     0.621700000000     0          
C814     C      0.417520000000     0.246400000000     0.602200000000     0          
C815     C      0.444360000000     0.311600000000     0.603600000000     0          
C816     C      0.448100000000     0.309300000000     0.563800000000     0          
H817     H      0.458360000000     0.330460000000     0.550280000000     0          
C818     C      0.391300000000     0.308690000000     0.672500000000     0          
H819     H      0.384330000000     0.324270000000     0.650020000000     0          
H820     H      0.402470000000     0.326080000000     0.691740000000     0          
C821     C      0.405060000000     0.211020000000     0.624300000000     0          
H822     H      0.384350000000     0.217890000000     0.642220000000     0          
H823     H      0.395060000000     0.191690000000     0.606330000000     0          
C824     C      0.423100000000     0.245900000000     0.562500000000     0          
H825     H      0.416850000000     0.223500000000     0.548700000000     0          
C826     C      0.937100000000     0.776400000000     0.043300000000     0          
H827     H      0.939440000000     0.775650000000     0.016380000000     0          
C828     C      0.739000000000     0.801600000000     0.132900000000     0          
H829     H      0.737660000000     0.811760000000     0.107820000000     0          
Zr830    Zr     0.770210000000     0.811960000000     0.220780000000     0          
O831     O      0.828420000000     0.815400000000     0.194040000000     0          
O832     O      0.854790000000     0.756530000000     0.197930000000     0          
O833     O      0.919800000000     0.781950000000     0.161270000000     0          
O834     O      0.775460000000     0.756780000000     0.195000000000     0          
O835     O      0.759800000000     0.828500000000     0.160770000000     0          
C836     C      0.854870000000     0.791210000000     0.189110000000     0          
O837     O      0.721600000000     0.765900000000     0.135470000000     0          
C838     C      0.926520000000     0.780190000000     0.121700000000     0          
C839     C      0.917520000000     0.746400000000     0.102200000000     0          
C840     C      0.944360000000     0.811600000000     0.103600000000     0          
C841     C      0.948100000000     0.809300000000     0.063800000000     0          
H842     H      0.958360000000     0.830460000000     0.050280000000     0          
C843     C      0.891300000000     0.808690000000     0.172500000000     0          
H844     H      0.884330000000     0.824270000000     0.150020000000     0          
H845     H      0.902470000000     0.826080000000     0.191740000000     0          
C846     C      0.905060000000     0.711020000000     0.124300000000     0          
H847     H      0.884350000000     0.717890000000     0.142220000000     0          
H848     H      0.895060000000     0.691690000000     0.106330000000     0          
C849     C      0.923100000000     0.745900000000     0.062500000000     0          
H850     H      0.916850000000     0.723500000000     0.048700000000     0          
C851     C      0.562900000000     0.776400000000     0.956700000000     0          
H852     H      0.560560000000     0.775650000000     0.983620000000     0          
C853     C      0.761000000000     0.801600000000     0.867100000000     0          
H854     H      0.762340000000     0.811760000000     0.892180000000     0          
Zr855    Zr     0.729790000000     0.811960000000     0.779220000000     0          
O856     O      0.671580000000     0.815400000000     0.805960000000     0          
O857     O      0.645210000000     0.756530000000     0.802070000000     0          
O858     O      0.580200000000     0.781950000000     0.838730000000     0          
O859     O      0.724540000000     0.756780000000     0.805000000000     0          
O860     O      0.740200000000     0.828500000000     0.839230000000     0          
C861     C      0.645130000000     0.791210000000     0.810890000000     0          
O862     O      0.778400000000     0.765900000000     0.864530000000     0          
C863     C      0.573480000000     0.780190000000     0.878300000000     0          
C864     C      0.582480000000     0.746400000000     0.897800000000     0          
C865     C      0.555640000000     0.811600000000     0.896400000000     0          
C866     C      0.551900000000     0.809300000000     0.936200000000     0          
H867     H      0.541640000000     0.830460000000     0.949720000000     0          
C868     C      0.608700000000     0.808690000000     0.827500000000     0          
H869     H      0.615670000000     0.824270000000     0.849980000000     0          
H870     H      0.597530000000     0.826080000000     0.808260000000     0          
C871     C      0.594940000000     0.711020000000     0.875700000000     0          
H872     H      0.615650000000     0.717890000000     0.857780000000     0          
H873     H      0.604940000000     0.691690000000     0.893670000000     0          
C874     C      0.576900000000     0.745900000000     0.937500000000     0          
H875     H      0.583150000000     0.723500000000     0.951300000000     0          
C876     C      0.062900000000     0.276400000000     0.456700000000     0          
H877     H      0.060560000000     0.275650000000     0.483620000000     0          
C878     C      0.261000000000     0.301600000000     0.367100000000     0          
H879     H      0.262340000000     0.311760000000     0.392180000000     0          
Zr880    Zr     0.229790000000     0.311960000000     0.279220000000     0          
O881     O      0.171580000000     0.315400000000     0.305960000000     0          
O882     O      0.145210000000     0.256530000000     0.302070000000     0          
O883     O      0.080200000000     0.281950000000     0.338730000000     0          
O884     O      0.224540000000     0.256780000000     0.305000000000     0          
O885     O      0.240200000000     0.328500000000     0.339230000000     0          
C886     C      0.145130000000     0.291210000000     0.310890000000     0          
O887     O      0.278400000000     0.265900000000     0.364530000000     0          
C888     C      0.073480000000     0.280190000000     0.378300000000     0          
C889     C      0.082480000000     0.246400000000     0.397800000000     0          
C890     C      0.055640000000     0.311600000000     0.396400000000     0          
C891     C      0.051900000000     0.309300000000     0.436200000000     0          
H892     H      0.041640000000     0.330460000000     0.449720000000     0          
C893     C      0.108700000000     0.308690000000     0.327500000000     0          
H894     H      0.115670000000     0.324270000000     0.349980000000     0          
H895     H      0.097530000000     0.326080000000     0.308260000000     0          
C896     C      0.094940000000     0.211020000000     0.375700000000     0          
H897     H      0.115650000000     0.217890000000     0.357780000000     0          
H898     H      0.104940000000     0.191690000000     0.393670000000     0          
C899     C      0.076900000000     0.245900000000     0.437500000000     0          
H900     H      0.083150000000     0.223500000000     0.451300000000     0          
C901     C      0.062900000000     0.723600000000     0.043300000000     0          
H902     H      0.060560000000     0.724350000000     0.016380000000     0          
C903     C      0.261000000000     0.698400000000     0.132900000000     0          
H904     H      0.262340000000     0.688240000000     0.107820000000     0          
Zr905    Zr     0.229790000000     0.688040000000     0.220780000000     0          
O906     O      0.171580000000     0.684600000000     0.194040000000     0          
O907     O      0.145210000000     0.743470000000     0.197930000000     0          
O908     O      0.080200000000     0.718050000000     0.161270000000     0          
O909     O      0.224540000000     0.743220000000     0.195000000000     0          
O910     O      0.240200000000     0.671500000000     0.160770000000     0          
C911     C      0.145130000000     0.708790000000     0.189110000000     0          
O912     O      0.278400000000     0.734100000000     0.135470000000     0          
C913     C      0.073480000000     0.719810000000     0.121700000000     0          
C914     C      0.082480000000     0.753600000000     0.102200000000     0          
C915     C      0.055640000000     0.688400000000     0.103600000000     0          
C916     C      0.051900000000     0.690700000000     0.063800000000     0          
H917     H      0.041640000000     0.669540000000     0.050280000000     0          
C918     C      0.108700000000     0.691310000000     0.172500000000     0          
H919     H      0.115670000000     0.675730000000     0.150020000000     0          
H920     H      0.097530000000     0.673920000000     0.191740000000     0          
C921     C      0.094940000000     0.788980000000     0.124300000000     0          
H922     H      0.115650000000     0.782110000000     0.142220000000     0          
H923     H      0.104940000000     0.808310000000     0.106330000000     0          
C924     C      0.076900000000     0.754100000000     0.062500000000     0          
H925     H      0.083150000000     0.776500000000     0.048700000000     0          
C926     C      0.562900000000     0.223600000000     0.543300000000     0          
H927     H      0.560560000000     0.224350000000     0.516380000000     0          
C928     C      0.761000000000     0.198400000000     0.632900000000     0          
H929     H      0.762340000000     0.188240000000     0.607820000000     0          
Zr930    Zr     0.729790000000     0.188040000000     0.720780000000     0          
O931     O      0.671580000000     0.184600000000     0.694040000000     0          
O932     O      0.645210000000     0.243470000000     0.697930000000     0          
O933     O      0.580200000000     0.218050000000     0.661270000000     0          
O934     O      0.724540000000     0.243220000000     0.695000000000     0          
O935     O      0.740200000000     0.171500000000     0.660770000000     0          
C936     C      0.645130000000     0.208790000000     0.689110000000     0          
O937     O      0.778400000000     0.234100000000     0.635470000000     0          
C938     C      0.573480000000     0.219810000000     0.621700000000     0          
C939     C      0.582480000000     0.253600000000     0.602200000000     0          
C940     C      0.555640000000     0.188400000000     0.603600000000     0          
C941     C      0.551900000000     0.190700000000     0.563800000000     0          
H942     H      0.541640000000     0.169540000000     0.550280000000     0          
C943     C      0.608700000000     0.191310000000     0.672500000000     0          
H944     H      0.615670000000     0.175730000000     0.650020000000     0          
H945     H      0.597530000000     0.173920000000     0.691740000000     0          
C946     C      0.594940000000     0.288980000000     0.624300000000     0          
H947     H      0.615650000000     0.282110000000     0.642220000000     0          
H948     H      0.604940000000     0.308310000000     0.606330000000     0          
C949     C      0.576900000000     0.254100000000     0.562500000000     0          
H950     H      0.583150000000     0.276500000000     0.548700000000     0          
C951     C      0.937100000000     0.223600000000     0.456700000000     0          
H952     H      0.939440000000     0.224350000000     0.483620000000     0          
C953     C      0.739000000000     0.198400000000     0.367100000000     0          
H954     H      0.737660000000     0.188240000000     0.392180000000     0          
Zr955    Zr     0.770210000000     0.188040000000     0.279220000000     0          
O956     O      0.828420000000     0.184600000000     0.305960000000     0          
O957     O      0.854790000000     0.243470000000     0.302070000000     0          
O958     O      0.919800000000     0.218050000000     0.338730000000     0          
O959     O      0.775460000000     0.243220000000     0.305000000000     0          
O960     O      0.759800000000     0.171500000000     0.339230000000     0          
C961     C      0.854870000000     0.208790000000     0.310890000000     0          
O962     O      0.721600000000     0.234100000000     0.364530000000     0          
C963     C      0.926520000000     0.219810000000     0.378300000000     0          
C964     C      0.917520000000     0.253600000000     0.397800000000     0          
C965     C      0.944360000000     0.188400000000     0.396400000000     0          
C966     C      0.948100000000     0.190700000000     0.436200000000     0          
H967     H      0.958360000000     0.169540000000     0.449720000000     0          
C968     C      0.891300000000     0.191310000000     0.327500000000     0          
H969     H      0.884330000000     0.175730000000     0.349980000000     0          
H970     H      0.902470000000     0.173920000000     0.308260000000     0          
C971     C      0.905060000000     0.288980000000     0.375700000000     0          
H972     H      0.884350000000     0.282110000000     0.357780000000     0          
H973     H      0.895060000000     0.308310000000     0.393670000000     0          
C974     C      0.923100000000     0.254100000000     0.437500000000     0          
H975     H      0.916850000000     0.276500000000     0.451300000000     0          
C976     C      0.437100000000     0.723600000000     0.956700000000     0          
H977     H      0.439440000000     0.724350000000     0.983620000000     0          
C978     C      0.239000000000     0.698400000000     0.867100000000     0          
H979     H      0.237660000000     0.688240000000     0.892180000000     0          
Zr980    Zr     0.270210000000     0.688040000000     0.779220000000     0          
O981     O      0.328420000000     0.684600000000     0.805960000000     0          
O982     O      0.354790000000     0.743470000000     0.802070000000     0          
O983     O      0.419800000000     0.718050000000     0.838730000000     0          
O984     O      0.275460000000     0.743220000000     0.805000000000     0          
O985     O      0.259800000000     0.671500000000     0.839230000000     0          
C986     C      0.354870000000     0.708790000000     0.810890000000     0          
O987     O      0.221600000000     0.734100000000     0.864530000000     0          
C988     C      0.426520000000     0.719810000000     0.878300000000     0          
C989     C      0.417520000000     0.753600000000     0.897800000000     0          
C990     C      0.444360000000     0.688400000000     0.896400000000     0          
C991     C      0.448100000000     0.690700000000     0.936200000000     0          
H992     H      0.458360000000     0.669540000000     0.949720000000     0          
C993     C      0.391300000000     0.691310000000     0.827500000000     0          
H994     H      0.384330000000     0.675730000000     0.849980000000     0          
H995     H      0.402470000000     0.673920000000     0.808260000000     0          
C996     C      0.405060000000     0.788980000000     0.875700000000     0          
H997     H      0.384350000000     0.782110000000     0.857780000000     0          
H998     H      0.395060000000     0.808310000000     0.893670000000     0          
C999     C      0.423100000000     0.754100000000     0.937500000000     0          
H1000    H      0.416850000000     0.776500000000     0.951300000000     0          
C1001    C      0.776400000000     0.956700000000     0.562900000000     0          
H1002    H      0.775650000000     0.983620000000     0.560560000000     0          
C1003    C      0.801600000000     0.867100000000     0.761000000000     0          
H1004    H      0.811760000000     0.892180000000     0.762340000000     0          
Zr1005   Zr     0.811960000000     0.779220000000     0.729790000000     0          
O1006    O      0.815400000000     0.805960000000     0.671580000000     0          
O1007    O      0.756530000000     0.802070000000     0.645210000000     0          
O1008    O      0.781950000000     0.838730000000     0.580200000000     0          
O1009    O      0.756780000000     0.805000000000     0.724540000000     0          
O1010    O      0.828500000000     0.839230000000     0.740200000000     0          
C1011    C      0.791210000000     0.810890000000     0.645130000000     0          
O1012    O      0.765900000000     0.864530000000     0.778400000000     0          
C1013    C      0.780190000000     0.878300000000     0.573480000000     0          
C1014    C      0.746400000000     0.897800000000     0.582480000000     0          
C1015    C      0.811600000000     0.896400000000     0.555640000000     0          
C1016    C      0.809300000000     0.936200000000     0.551900000000     0          
H1017    H      0.830460000000     0.949720000000     0.541640000000     0          
C1018    C      0.808690000000     0.827500000000     0.608700000000     0          
H1019    H      0.824270000000     0.849980000000     0.615670000000     0          
H1020    H      0.826080000000     0.808260000000     0.597530000000     0          
C1021    C      0.711020000000     0.875700000000     0.594940000000     0          
H1022    H      0.717890000000     0.857780000000     0.615650000000     0          
H1023    H      0.691690000000     0.893670000000     0.604940000000     0          
C1024    C      0.745900000000     0.937500000000     0.576900000000     0          
H1025    H      0.723500000000     0.951300000000     0.583150000000     0          
C1026    C      0.276400000000     0.456700000000     0.062900000000     0          
H1027    H      0.275650000000     0.483620000000     0.060560000000     0          
C1028    C      0.301600000000     0.367100000000     0.261000000000     0          
H1029    H      0.311760000000     0.392180000000     0.262340000000     0          
Zr1030   Zr     0.311960000000     0.279220000000     0.229790000000     0          
O1031    O      0.315400000000     0.305960000000     0.171580000000     0          
O1032    O      0.256530000000     0.302070000000     0.145210000000     0          
O1033    O      0.281950000000     0.338730000000     0.080200000000     0          
O1034    O      0.256780000000     0.305000000000     0.224540000000     0          
O1035    O      0.328500000000     0.339230000000     0.240200000000     0          
C1036    C      0.291210000000     0.310890000000     0.145130000000     0          
O1037    O      0.265900000000     0.364530000000     0.278400000000     0          
C1038    C      0.280190000000     0.378300000000     0.073480000000     0          
C1039    C      0.246400000000     0.397800000000     0.082480000000     0          
C1040    C      0.311600000000     0.396400000000     0.055640000000     0          
C1041    C      0.309300000000     0.436200000000     0.051900000000     0          
H1042    H      0.330460000000     0.449720000000     0.041640000000     0          
C1043    C      0.308690000000     0.327500000000     0.108700000000     0          
H1044    H      0.324270000000     0.349980000000     0.115670000000     0          
H1045    H      0.326080000000     0.308260000000     0.097530000000     0          
C1046    C      0.211020000000     0.375700000000     0.094940000000     0          
H1047    H      0.217890000000     0.357780000000     0.115650000000     0          
H1048    H      0.191690000000     0.393670000000     0.104940000000     0          
C1049    C      0.245900000000     0.437500000000     0.076900000000     0          
H1050    H      0.223500000000     0.451300000000     0.083150000000     0          
C1051    C      0.276400000000     0.543300000000     0.437100000000     0          
H1052    H      0.275650000000     0.516380000000     0.439440000000     0          
C1053    C      0.301600000000     0.632900000000     0.239000000000     0          
H1054    H      0.311760000000     0.607820000000     0.237660000000     0          
Zr1055   Zr     0.311960000000     0.720780000000     0.270210000000     0          
O1056    O      0.315400000000     0.694040000000     0.328420000000     0          
O1057    O      0.256530000000     0.697930000000     0.354790000000     0          
O1058    O      0.281950000000     0.661270000000     0.419800000000     0          
O1059    O      0.256780000000     0.695000000000     0.275460000000     0          
O1060    O      0.328500000000     0.660770000000     0.259800000000     0          
C1061    C      0.291210000000     0.689110000000     0.354870000000     0          
O1062    O      0.265900000000     0.635470000000     0.221600000000     0          
C1063    C      0.280190000000     0.621700000000     0.426520000000     0          
C1064    C      0.246400000000     0.602200000000     0.417520000000     0          
C1065    C      0.311600000000     0.603600000000     0.444360000000     0          
C1066    C      0.309300000000     0.563800000000     0.448100000000     0          
H1067    H      0.330460000000     0.550280000000     0.458360000000     0          
C1068    C      0.308690000000     0.672500000000     0.391300000000     0          
H1069    H      0.324270000000     0.650020000000     0.384330000000     0          
H1070    H      0.326080000000     0.691740000000     0.402470000000     0          
C1071    C      0.211020000000     0.624300000000     0.405060000000     0          
H1072    H      0.217890000000     0.642220000000     0.384350000000     0          
H1073    H      0.191690000000     0.606330000000     0.395060000000     0          
C1074    C      0.245900000000     0.562500000000     0.423100000000     0          
H1075    H      0.223500000000     0.548700000000     0.416850000000     0          
C1076    C      0.776400000000     0.043300000000     0.937100000000     0          
H1077    H      0.775650000000     0.016380000000     0.939440000000     0          
C1078    C      0.801600000000     0.132900000000     0.739000000000     0          
H1079    H      0.811760000000     0.107820000000     0.737660000000     0          
Zr1080   Zr     0.811960000000     0.220780000000     0.770210000000     0          
O1081    O      0.815400000000     0.194040000000     0.828420000000     0          
O1082    O      0.756530000000     0.197930000000     0.854790000000     0          
O1083    O      0.781950000000     0.161270000000     0.919800000000     0          
O1084    O      0.756780000000     0.195000000000     0.775460000000     0          
O1085    O      0.828500000000     0.160770000000     0.759800000000     0          
C1086    C      0.791210000000     0.189110000000     0.854870000000     0          
O1087    O      0.765900000000     0.135470000000     0.721600000000     0          
C1088    C      0.780190000000     0.121700000000     0.926520000000     0          
C1089    C      0.746400000000     0.102200000000     0.917520000000     0          
C1090    C      0.811600000000     0.103600000000     0.944360000000     0          
C1091    C      0.809300000000     0.063800000000     0.948100000000     0          
H1092    H      0.830460000000     0.050280000000     0.958360000000     0          
C1093    C      0.808690000000     0.172500000000     0.891300000000     0          
H1094    H      0.824270000000     0.150020000000     0.884330000000     0          
H1095    H      0.826080000000     0.191740000000     0.902470000000     0          
C1096    C      0.711020000000     0.124300000000     0.905060000000     0          
H1097    H      0.717890000000     0.142220000000     0.884350000000     0          
H1098    H      0.691690000000     0.106330000000     0.895060000000     0          
C1099    C      0.745900000000     0.062500000000     0.923100000000     0          
H1100    H      0.723500000000     0.048700000000     0.916850000000     0          
C1101    C      0.223600000000     0.456700000000     0.937100000000     0          
H1102    H      0.224350000000     0.483620000000     0.939440000000     0          
C1103    C      0.198400000000     0.367100000000     0.739000000000     0          
H1104    H      0.188240000000     0.392180000000     0.737660000000     0          
Zr1105   Zr     0.188040000000     0.279220000000     0.770210000000     0          
O1106    O      0.184600000000     0.305960000000     0.828420000000     0          
O1107    O      0.243470000000     0.302070000000     0.854790000000     0          
O1108    O      0.218050000000     0.338730000000     0.919800000000     0          
O1109    O      0.243220000000     0.305000000000     0.775460000000     0          
O1110    O      0.171500000000     0.339230000000     0.759800000000     0          
C1111    C      0.208790000000     0.310890000000     0.854870000000     0          
O1112    O      0.234100000000     0.364530000000     0.721600000000     0          
C1113    C      0.219810000000     0.378300000000     0.926520000000     0          
C1114    C      0.253600000000     0.397800000000     0.917520000000     0          
C1115    C      0.188400000000     0.396400000000     0.944360000000     0          
C1116    C      0.190700000000     0.436200000000     0.948100000000     0          
H1117    H      0.169540000000     0.449720000000     0.958360000000     0          
C1118    C      0.191310000000     0.327500000000     0.891300000000     0          
H1119    H      0.175730000000     0.349980000000     0.884330000000     0          
H1120    H      0.173920000000     0.308260000000     0.902470000000     0          
C1121    C      0.288980000000     0.375700000000     0.905060000000     0          
H1122    H      0.282110000000     0.357780000000     0.884350000000     0          
H1123    H      0.308310000000     0.393670000000     0.895060000000     0          
C1124    C      0.254100000000     0.437500000000     0.923100000000     0          
H1125    H      0.276500000000     0.451300000000     0.916850000000     0          
C1126    C      0.723600000000     0.956700000000     0.437100000000     0          
H1127    H      0.724350000000     0.983620000000     0.439440000000     0          
C1128    C      0.698400000000     0.867100000000     0.239000000000     0          
H1129    H      0.688240000000     0.892180000000     0.237660000000     0          
Zr1130   Zr     0.688040000000     0.779220000000     0.270210000000     0          
O1131    O      0.684600000000     0.805960000000     0.328420000000     0          
O1132    O      0.743470000000     0.802070000000     0.354790000000     0          
O1133    O      0.718050000000     0.838730000000     0.419800000000     0          
O1134    O      0.743220000000     0.805000000000     0.275460000000     0          
O1135    O      0.671500000000     0.839230000000     0.259800000000     0          
C1136    C      0.708790000000     0.810890000000     0.354870000000     0          
O1137    O      0.734100000000     0.864530000000     0.221600000000     0          
C1138    C      0.719810000000     0.878300000000     0.426520000000     0          
C1139    C      0.753600000000     0.897800000000     0.417520000000     0          
C1140    C      0.688400000000     0.896400000000     0.444360000000     0          
C1141    C      0.690700000000     0.936200000000     0.448100000000     0          
H1142    H      0.669540000000     0.949720000000     0.458360000000     0          
C1143    C      0.691310000000     0.827500000000     0.391300000000     0          
H1144    H      0.675730000000     0.849980000000     0.384330000000     0          
H1145    H      0.673920000000     0.808260000000     0.402470000000     0          
C1146    C      0.788980000000     0.875700000000     0.405060000000     0          
H1147    H      0.782110000000     0.857780000000     0.384350000000     0          
H1148    H      0.808310000000     0.893670000000     0.395060000000     0          
C1149    C      0.754100000000     0.937500000000     0.423100000000     0          
H1150    H      0.776500000000     0.951300000000     0.416850000000     0          
C1151    C      0.723600000000     0.043300000000     0.062900000000     0          
H1152    H      0.724350000000     0.016380000000     0.060560000000     0          
C1153    C      0.698400000000     0.132900000000     0.261000000000     0          
H1154    H      0.688240000000     0.107820000000     0.262340000000     0          
Zr1155   Zr     0.688040000000     0.220780000000     0.229790000000     0          
O1156    O      0.684600000000     0.194040000000     0.171580000000     0          
O1157    O      0.743470000000     0.197930000000     0.145210000000     0          
O1158    O      0.718050000000     0.161270000000     0.080200000000     0          
O1159    O      0.743220000000     0.195000000000     0.224540000000     0          
O1160    O      0.671500000000     0.160770000000     0.240200000000     0          
C1161    C      0.708790000000     0.189110000000     0.145130000000     0          
O1162    O      0.734100000000     0.135470000000     0.278400000000     0          
C1163    C      0.719810000000     0.121700000000     0.073480000000     0          
C1164    C      0.753600000000     0.102200000000     0.082480000000     0          
C1165    C      0.688400000000     0.103600000000     0.055640000000     0          
C1166    C      0.690700000000     0.063800000000     0.051900000000     0          
H1167    H      0.669540000000     0.050280000000     0.041640000000     0          
C1168    C      0.691310000000     0.172500000000     0.108700000000     0          
H1169    H      0.675730000000     0.150020000000     0.115670000000     0          
H1170    H      0.673920000000     0.191740000000     0.097530000000     0          
C1171    C      0.788980000000     0.124300000000     0.094940000000     0          
H1172    H      0.782110000000     0.142220000000     0.115650000000     0          
H1173    H      0.808310000000     0.106330000000     0.104940000000     0          
C1174    C      0.754100000000     0.062500000000     0.076900000000     0          
H1175    H      0.776500000000     0.048700000000     0.083150000000     0          
C1176    C      0.223600000000     0.543300000000     0.562900000000     0          
H1177    H      0.224350000000     0.516380000000     0.560560000000     0          
C1178    C      0.198400000000     0.632900000000     0.761000000000     0          
H1179    H      0.188240000000     0.607820000000     0.762340000000     0          
Zr1180   Zr     0.188040000000     0.720780000000     0.729790000000     0          
O1181    O      0.184600000000     0.694040000000     0.671580000000     0          
O1182    O      0.243470000000     0.697930000000     0.645210000000     0          
O1183    O      0.218050000000     0.661270000000     0.580200000000     0          
O1184    O      0.243220000000     0.695000000000     0.724540000000     0          
O1185    O      0.171500000000     0.660770000000     0.740200000000     0          
C1186    C      0.208790000000     0.689110000000     0.645130000000     0          
O1187    O      0.234100000000     0.635470000000     0.778400000000     0          
C1188    C      0.219810000000     0.621700000000     0.573480000000     0          
C1189    C      0.253600000000     0.602200000000     0.582480000000     0          
C1190    C      0.188400000000     0.603600000000     0.555640000000     0          
C1191    C      0.190700000000     0.563800000000     0.551900000000     0          
H1192    H      0.169540000000     0.550280000000     0.541640000000     0          
C1193    C      0.191310000000     0.672500000000     0.608700000000     0          
H1194    H      0.175730000000     0.650020000000     0.615670000000     0          
H1195    H      0.173920000000     0.691740000000     0.597530000000     0          
C1196    C      0.288980000000     0.624300000000     0.594940000000     0          
H1197    H      0.282110000000     0.642220000000     0.615650000000     0          
H1198    H      0.308310000000     0.606330000000     0.604940000000     0          
C1199    C      0.254100000000     0.562500000000     0.576900000000     0          
H1200    H      0.276500000000     0.548700000000     0.583150000000     0          
C1201    C      0.312900000000     0.293300000000     0.973600000000     0          
H1202    H      0.310560000000     0.266380000000     0.974350000000     0          
C1203    C      0.511000000000     0.382900000000     0.948400000000     0          
H1204    H      0.512340000000     0.357820000000     0.938240000000     0          
Zr1205   Zr     0.479790000000     0.470780000000     0.938040000000     0          
O1206    O      0.421580000000     0.444040000000     0.934600000000     0          
O1207    O      0.395210000000     0.447930000000     0.993470000000     0          
O1208    O      0.330200000000     0.411270000000     0.968050000000     0          
O1209    O      0.474540000000     0.445000000000     0.993220000000     0          
O1210    O      0.490200000000     0.410770000000     0.921500000000     0          
C1211    C      0.395130000000     0.439110000000     0.958790000000     0          
O1212    O      0.528400000000     0.385470000000     0.984100000000     0          
C1213    C      0.323480000000     0.371700000000     0.969810000000     0          
C1214    C      0.332480000000     0.352200000000     0.003600000000     0          
C1215    C      0.305640000000     0.353600000000     0.938400000000     0          
C1216    C      0.301900000000     0.313800000000     0.940700000000     0          
H1217    H      0.291640000000     0.300280000000     0.919540000000     0          
C1218    C      0.358700000000     0.422500000000     0.941310000000     0          
H1219    H      0.365670000000     0.400020000000     0.925730000000     0          
H1220    H      0.347530000000     0.441740000000     0.923920000000     0          
C1221    C      0.344940000000     0.374300000000     0.038980000000     0          
H1222    H      0.365650000000     0.392220000000     0.032110000000     0          
H1223    H      0.354940000000     0.356330000000     0.058310000000     0          
C1224    C      0.326900000000     0.312500000000     0.004100000000     0          
H1225    H      0.333150000000     0.298700000000     0.026500000000     0          
C1226    C      0.812900000000     0.793300000000     0.473600000000     0          
H1227    H      0.810560000000     0.766380000000     0.474350000000     0          
C1228    C      0.011000000000     0.882900000000     0.448400000000     0          
H1229    H      0.012340000000     0.857820000000     0.438240000000     0          
Zr1230   Zr     0.979790000000     0.970780000000     0.438040000000     0          
O1231    O      0.921580000000     0.944040000000     0.434600000000     0          
O1232    O      0.895210000000     0.947930000000     0.493470000000     0          
O1233    O      0.830200000000     0.911270000000     0.468050000000     0          
O1234    O      0.974540000000     0.945000000000     0.493220000000     0          
O1235    O      0.990200000000     0.910770000000     0.421500000000     0          
C1236    C      0.895130000000     0.939110000000     0.458790000000     0          
O1237    O      0.028400000000     0.885470000000     0.484100000000     0          
C1238    C      0.823480000000     0.871700000000     0.469810000000     0          
C1239    C      0.832480000000     0.852200000000     0.503600000000     0          
C1240    C      0.805640000000     0.853600000000     0.438400000000     0          
C1241    C      0.801900000000     0.813800000000     0.440700000000     0          
H1242    H      0.791640000000     0.800280000000     0.419540000000     0          
C1243    C      0.858700000000     0.922500000000     0.441310000000     0          
H1244    H      0.865670000000     0.900020000000     0.425730000000     0          
H1245    H      0.847530000000     0.941740000000     0.423920000000     0          
C1246    C      0.844940000000     0.874300000000     0.538980000000     0          
H1247    H      0.865650000000     0.892220000000     0.532110000000     0          
H1248    H      0.854940000000     0.856330000000     0.558310000000     0          
C1249    C      0.826900000000     0.812500000000     0.504100000000     0          
H1250    H      0.833150000000     0.798700000000     0.526500000000     0          
C1251    C      0.187100000000     0.706700000000     0.473600000000     0          
H1252    H      0.189440000000     0.733620000000     0.474350000000     0          
C1253    C      0.989000000000     0.617100000000     0.448400000000     0          
H1254    H      0.987660000000     0.642180000000     0.438240000000     0          
Zr1255   Zr     0.020210000000     0.529220000000     0.438040000000     0          
O1256    O      0.078420000000     0.555960000000     0.434600000000     0          
O1257    O      0.104790000000     0.552070000000     0.493470000000     0          
O1258    O      0.169800000000     0.588730000000     0.468050000000     0          
O1259    O      0.025460000000     0.555000000000     0.493220000000     0          
O1260    O      0.009800000000     0.589230000000     0.421500000000     0          
C1261    C      0.104870000000     0.560890000000     0.458790000000     0          
O1262    O      0.971600000000     0.614530000000     0.484100000000     0          
C1263    C      0.176520000000     0.628300000000     0.469810000000     0          
C1264    C      0.167520000000     0.647800000000     0.503600000000     0          
C1265    C      0.194360000000     0.646400000000     0.438400000000     0          
C1266    C      0.198100000000     0.686200000000     0.440700000000     0          
H1267    H      0.208360000000     0.699720000000     0.419540000000     0          
C1268    C      0.141300000000     0.577500000000     0.441310000000     0          
H1269    H      0.134330000000     0.599980000000     0.425730000000     0          
H1270    H      0.152470000000     0.558260000000     0.423920000000     0          
C1271    C      0.155060000000     0.625700000000     0.538980000000     0          
H1272    H      0.134350000000     0.607780000000     0.532110000000     0          
H1273    H      0.145060000000     0.643670000000     0.558310000000     0          
C1274    C      0.173100000000     0.687500000000     0.504100000000     0          
H1275    H      0.166850000000     0.701300000000     0.526500000000     0          
C1276    C      0.687100000000     0.206700000000     0.973600000000     0          
H1277    H      0.689440000000     0.233620000000     0.974350000000     0          
C1278    C      0.489000000000     0.117100000000     0.948400000000     0          
H1279    H      0.487660000000     0.142180000000     0.938240000000     0          
Zr1280   Zr     0.520210000000     0.029220000000     0.938040000000     0          
O1281    O      0.578420000000     0.055960000000     0.934600000000     0          
O1282    O      0.604790000000     0.052070000000     0.993470000000     0          
O1283    O      0.669800000000     0.088730000000     0.968050000000     0          
O1284    O      0.525460000000     0.055000000000     0.993220000000     0          
O1285    O      0.509800000000     0.089230000000     0.921500000000     0          
C1286    C      0.604870000000     0.060890000000     0.958790000000     0          
O1287    O      0.471600000000     0.114530000000     0.984100000000     0          
C1288    C      0.676520000000     0.128300000000     0.969810000000     0          
C1289    C      0.667520000000     0.147800000000     0.003600000000     0          
C1290    C      0.694360000000     0.146400000000     0.938400000000     0          
C1291    C      0.698100000000     0.186200000000     0.940700000000     0          
H1292    H      0.708360000000     0.199720000000     0.919540000000     0          
C1293    C      0.641300000000     0.077500000000     0.941310000000     0          
H1294    H      0.634330000000     0.099980000000     0.925730000000     0          
H1295    H      0.652470000000     0.058260000000     0.923920000000     0          
C1296    C      0.655060000000     0.125700000000     0.038980000000     0          
H1297    H      0.634350000000     0.107780000000     0.032110000000     0          
H1298    H      0.645060000000     0.143670000000     0.058310000000     0          
C1299    C      0.673100000000     0.187500000000     0.004100000000     0          
H1300    H      0.666850000000     0.201300000000     0.026500000000     0          
C1301    C      0.687100000000     0.793300000000     0.526400000000     0          
H1302    H      0.689440000000     0.766380000000     0.525650000000     0          
C1303    C      0.489000000000     0.882900000000     0.551600000000     0          
H1304    H      0.487660000000     0.857820000000     0.561760000000     0          
Zr1305   Zr     0.520210000000     0.970780000000     0.561960000000     0          
O1306    O      0.578420000000     0.944040000000     0.565400000000     0          
O1307    O      0.604790000000     0.947930000000     0.506530000000     0          
O1308    O      0.669800000000     0.911270000000     0.531950000000     0          
O1309    O      0.525460000000     0.945000000000     0.506780000000     0          
O1310    O      0.509800000000     0.910770000000     0.578500000000     0          
C1311    C      0.604870000000     0.939110000000     0.541210000000     0          
O1312    O      0.471600000000     0.885470000000     0.515900000000     0          
C1313    C      0.676520000000     0.871700000000     0.530190000000     0          
C1314    C      0.667520000000     0.852200000000     0.496400000000     0          
C1315    C      0.694360000000     0.853600000000     0.561600000000     0          
C1316    C      0.698100000000     0.813800000000     0.559300000000     0          
H1317    H      0.708360000000     0.800280000000     0.580460000000     0          
C1318    C      0.641300000000     0.922500000000     0.558690000000     0          
H1319    H      0.634330000000     0.900020000000     0.574270000000     0          
H1320    H      0.652470000000     0.941740000000     0.576080000000     0          
C1321    C      0.655060000000     0.874300000000     0.461020000000     0          
H1322    H      0.634350000000     0.892220000000     0.467890000000     0          
H1323    H      0.645060000000     0.856330000000     0.441690000000     0          
C1324    C      0.673100000000     0.812500000000     0.495900000000     0          
H1325    H      0.666850000000     0.798700000000     0.473500000000     0          
C1326    C      0.187100000000     0.293300000000     0.026400000000     0          
H1327    H      0.189440000000     0.266380000000     0.025650000000     0          
C1328    C      0.989000000000     0.382900000000     0.051600000000     0          
H1329    H      0.987660000000     0.357820000000     0.061760000000     0          
Zr1330   Zr     0.020210000000     0.470780000000     0.061960000000     0          
O1331    O      0.078420000000     0.444040000000     0.065400000000     0          
O1332    O      0.104790000000     0.447930000000     0.006530000000     0          
O1333    O      0.169800000000     0.411270000000     0.031950000000     0          
O1334    O      0.025460000000     0.445000000000     0.006780000000     0          
O1335    O      0.009800000000     0.410770000000     0.078500000000     0          
C1336    C      0.104870000000     0.439110000000     0.041210000000     0          
O1337    O      0.971600000000     0.385470000000     0.015900000000     0          
C1338    C      0.176520000000     0.371700000000     0.030190000000     0          
C1339    C      0.167520000000     0.352200000000     0.996400000000     0          
C1340    C      0.194360000000     0.353600000000     0.061600000000     0          
C1341    C      0.198100000000     0.313800000000     0.059300000000     0          
H1342    H      0.208360000000     0.300280000000     0.080460000000     0          
C1343    C      0.141300000000     0.422500000000     0.058690000000     0          
H1344    H      0.134330000000     0.400020000000     0.074270000000     0          
H1345    H      0.152470000000     0.441740000000     0.076080000000     0          
C1346    C      0.155060000000     0.374300000000     0.961020000000     0          
H1347    H      0.134350000000     0.392220000000     0.967890000000     0          
H1348    H      0.145060000000     0.356330000000     0.941690000000     0          
C1349    C      0.173100000000     0.312500000000     0.995900000000     0          
H1350    H      0.166850000000     0.298700000000     0.973500000000     0          
C1351    C      0.812900000000     0.206700000000     0.026400000000     0          
H1352    H      0.810560000000     0.233620000000     0.025650000000     0          
C1353    C      0.011000000000     0.117100000000     0.051600000000     0          
H1354    H      0.012340000000     0.142180000000     0.061760000000     0          
Zr1355   Zr     0.979790000000     0.029220000000     0.061960000000     0          
O1356    O      0.921580000000     0.055960000000     0.065400000000     0          
O1357    O      0.895210000000     0.052070000000     0.006530000000     0          
O1358    O      0.830200000000     0.088730000000     0.031950000000     0          
O1359    O      0.974540000000     0.055000000000     0.006780000000     0          
O1360    O      0.990200000000     0.089230000000     0.078500000000     0          
C1361    C      0.895130000000     0.060890000000     0.041210000000     0          
O1362    O      0.028400000000     0.114530000000     0.015900000000     0          
C1363    C      0.823480000000     0.128300000000     0.030190000000     0          
C1364    C      0.832480000000     0.147800000000     0.996400000000     0          
C1365    C      0.805640000000     0.146400000000     0.061600000000     0          
C1366    C      0.801900000000     0.186200000000     0.059300000000     0          
H1367    H      0.791640000000     0.199720000000     0.080460000000     0          
C1368    C      0.858700000000     0.077500000000     0.058690000000     0          
H1369    H      0.865670000000     0.099980000000     0.074270000000     0          
H1370    H      0.847530000000     0.058260000000     0.076080000000     0          
C1371    C      0.844940000000     0.125700000000     0.961020000000     0          
H1372    H      0.865650000000     0.107780000000     0.967890000000     0          
H1373    H      0.854940000000     0.143670000000     0.941690000000     0          
C1374    C      0.826900000000     0.187500000000     0.995900000000     0          
H1375    H      0.833150000000     0.201300000000     0.973500000000     0          
C1376    C      0.312900000000     0.706700000000     0.526400000000     0          
H1377    H      0.310560000000     0.733620000000     0.525650000000     0          
C1378    C      0.511000000000     0.617100000000     0.551600000000     0          
H1379    H      0.512340000000     0.642180000000     0.561760000000     0          
Zr1380   Zr     0.479790000000     0.529220000000     0.561960000000     0          
O1381    O      0.421580000000     0.555960000000     0.565400000000     0          
O1382    O      0.395210000000     0.552070000000     0.506530000000     0          
O1383    O      0.330200000000     0.588730000000     0.531950000000     0          
O1384    O      0.474540000000     0.555000000000     0.506780000000     0          
O1385    O      0.490200000000     0.589230000000     0.578500000000     0          
C1386    C      0.395130000000     0.560890000000     0.541210000000     0          
O1387    O      0.528400000000     0.614530000000     0.515900000000     0          
C1388    C      0.323480000000     0.628300000000     0.530190000000     0          
C1389    C      0.332480000000     0.647800000000     0.496400000000     0          
C1390    C      0.305640000000     0.646400000000     0.561600000000     0          
C1391    C      0.301900000000     0.686200000000     0.559300000000     0          
H1392    H      0.291640000000     0.699720000000     0.580460000000     0          
C1393    C      0.358700000000     0.577500000000     0.558690000000     0          
H1394    H      0.365670000000     0.599980000000     0.574270000000     0          
H1395    H      0.347530000000     0.558260000000     0.576080000000     0          
C1396    C      0.344940000000     0.625700000000     0.461020000000     0          
H1397    H      0.365650000000     0.607780000000     0.467890000000     0          
H1398    H      0.354940000000     0.643670000000     0.441690000000     0          
C1399    C      0.326900000000     0.687500000000     0.495900000000     0          
H1400    H      0.333150000000     0.701300000000     0.473500000000     0          
C1401    C      0.973600000000     0.312900000000     0.293300000000     0          
H1402    H      0.974350000000     0.310560000000     0.266380000000     0          
C1403    C      0.948400000000     0.511000000000     0.382900000000     0          
H1404    H      0.938240000000     0.512340000000     0.357820000000     0          
Zr1405   Zr     0.938040000000     0.479790000000     0.470780000000     0          
O1406    O      0.934600000000     0.421580000000     0.444040000000     0          
O1407    O      0.993470000000     0.395210000000     0.447930000000     0          
O1408    O      0.968050000000     0.330200000000     0.411270000000     0          
O1409    O      0.993220000000     0.474540000000     0.445000000000     0          
O1410    O      0.921500000000     0.490200000000     0.410770000000     0          
C1411    C      0.958790000000     0.395130000000     0.439110000000     0          
O1412    O      0.984100000000     0.528400000000     0.385470000000     0          
C1413    C      0.969810000000     0.323480000000     0.371700000000     0          
C1414    C      0.003600000000     0.332480000000     0.352200000000     0          
C1415    C      0.938400000000     0.305640000000     0.353600000000     0          
C1416    C      0.940700000000     0.301900000000     0.313800000000     0          
H1417    H      0.919540000000     0.291640000000     0.300280000000     0          
C1418    C      0.941310000000     0.358700000000     0.422500000000     0          
H1419    H      0.925730000000     0.365670000000     0.400020000000     0          
H1420    H      0.923920000000     0.347530000000     0.441740000000     0          
C1421    C      0.038980000000     0.344940000000     0.374300000000     0          
H1422    H      0.032110000000     0.365650000000     0.392220000000     0          
H1423    H      0.058310000000     0.354940000000     0.356330000000     0          
C1424    C      0.004100000000     0.326900000000     0.312500000000     0          
H1425    H      0.026500000000     0.333150000000     0.298700000000     0          
C1426    C      0.473600000000     0.812900000000     0.793300000000     0          
H1427    H      0.474350000000     0.810560000000     0.766380000000     0          
C1428    C      0.448400000000     0.011000000000     0.882900000000     0          
H1429    H      0.438240000000     0.012340000000     0.857820000000     0          
Zr1430   Zr     0.438040000000     0.979790000000     0.970780000000     0          
O1431    O      0.434600000000     0.921580000000     0.944040000000     0          
O1432    O      0.493470000000     0.895210000000     0.947930000000     0          
O1433    O      0.468050000000     0.830200000000     0.911270000000     0          
O1434    O      0.493220000000     0.974540000000     0.945000000000     0          
O1435    O      0.421500000000     0.990200000000     0.910770000000     0          
C1436    C      0.458790000000     0.895130000000     0.939110000000     0          
O1437    O      0.484100000000     0.028400000000     0.885470000000     0          
C1438    C      0.469810000000     0.823480000000     0.871700000000     0          
C1439    C      0.503600000000     0.832480000000     0.852200000000     0          
C1440    C      0.438400000000     0.805640000000     0.853600000000     0          
C1441    C      0.440700000000     0.801900000000     0.813800000000     0          
H1442    H      0.419540000000     0.791640000000     0.800280000000     0          
C1443    C      0.441310000000     0.858700000000     0.922500000000     0          
H1444    H      0.425730000000     0.865670000000     0.900020000000     0          
H1445    H      0.423920000000     0.847530000000     0.941740000000     0          
C1446    C      0.538980000000     0.844940000000     0.874300000000     0          
H1447    H      0.532110000000     0.865650000000     0.892220000000     0          
H1448    H      0.558310000000     0.854940000000     0.856330000000     0          
C1449    C      0.504100000000     0.826900000000     0.812500000000     0          
H1450    H      0.526500000000     0.833150000000     0.798700000000     0          
C1451    C      0.473600000000     0.187100000000     0.706700000000     0          
H1452    H      0.474350000000     0.189440000000     0.733620000000     0          
C1453    C      0.448400000000     0.989000000000     0.617100000000     0          
H1454    H      0.438240000000     0.987660000000     0.642180000000     0          
Zr1455   Zr     0.438040000000     0.020210000000     0.529220000000     0          
O1456    O      0.434600000000     0.078420000000     0.555960000000     0          
O1457    O      0.493470000000     0.104790000000     0.552070000000     0          
O1458    O      0.468050000000     0.169800000000     0.588730000000     0          
O1459    O      0.493220000000     0.025460000000     0.555000000000     0          
O1460    O      0.421500000000     0.009800000000     0.589230000000     0          
C1461    C      0.458790000000     0.104870000000     0.560890000000     0          
O1462    O      0.484100000000     0.971600000000     0.614530000000     0          
C1463    C      0.469810000000     0.176520000000     0.628300000000     0          
C1464    C      0.503600000000     0.167520000000     0.647800000000     0          
C1465    C      0.438400000000     0.194360000000     0.646400000000     0          
C1466    C      0.440700000000     0.198100000000     0.686200000000     0          
H1467    H      0.419540000000     0.208360000000     0.699720000000     0          
C1468    C      0.441310000000     0.141300000000     0.577500000000     0          
H1469    H      0.425730000000     0.134330000000     0.599980000000     0          
H1470    H      0.423920000000     0.152470000000     0.558260000000     0          
C1471    C      0.538980000000     0.155060000000     0.625700000000     0          
H1472    H      0.532110000000     0.134350000000     0.607780000000     0          
H1473    H      0.558310000000     0.145060000000     0.643670000000     0          
C1474    C      0.504100000000     0.173100000000     0.687500000000     0          
H1475    H      0.526500000000     0.166850000000     0.701300000000     0          
C1476    C      0.973600000000     0.687100000000     0.206700000000     0          
H1477    H      0.974350000000     0.689440000000     0.233620000000     0          
C1478    C      0.948400000000     0.489000000000     0.117100000000     0          
H1479    H      0.938240000000     0.487660000000     0.142180000000     0          
Zr1480   Zr     0.938040000000     0.520210000000     0.029220000000     0          
O1481    O      0.934600000000     0.578420000000     0.055960000000     0          
O1482    O      0.993470000000     0.604790000000     0.052070000000     0          
O1483    O      0.968050000000     0.669800000000     0.088730000000     0          
O1484    O      0.993220000000     0.525460000000     0.055000000000     0          
O1485    O      0.921500000000     0.509800000000     0.089230000000     0          
C1486    C      0.958790000000     0.604870000000     0.060890000000     0          
O1487    O      0.984100000000     0.471600000000     0.114530000000     0          
C1488    C      0.969810000000     0.676520000000     0.128300000000     0          
C1489    C      0.003600000000     0.667520000000     0.147800000000     0          
C1490    C      0.938400000000     0.694360000000     0.146400000000     0          
C1491    C      0.940700000000     0.698100000000     0.186200000000     0          
H1492    H      0.919540000000     0.708360000000     0.199720000000     0          
C1493    C      0.941310000000     0.641300000000     0.077500000000     0          
H1494    H      0.925730000000     0.634330000000     0.099980000000     0          
H1495    H      0.923920000000     0.652470000000     0.058260000000     0          
C1496    C      0.038980000000     0.655060000000     0.125700000000     0          
H1497    H      0.032110000000     0.634350000000     0.107780000000     0          
H1498    H      0.058310000000     0.645060000000     0.143670000000     0          
C1499    C      0.004100000000     0.673100000000     0.187500000000     0          
H1500    H      0.026500000000     0.666850000000     0.201300000000     0          
C1501    C      0.526400000000     0.687100000000     0.793300000000     0          
H1502    H      0.525650000000     0.689440000000     0.766380000000     0          
C1503    C      0.551600000000     0.489000000000     0.882900000000     0          
H1504    H      0.561760000000     0.487660000000     0.857820000000     0          
Zr1505   Zr     0.561960000000     0.520210000000     0.970780000000     0          
O1506    O      0.565400000000     0.578420000000     0.944040000000     0          
O1507    O      0.506530000000     0.604790000000     0.947930000000     0          
O1508    O      0.531950000000     0.669800000000     0.911270000000     0          
O1509    O      0.506780000000     0.525460000000     0.945000000000     0          
O1510    O      0.578500000000     0.509800000000     0.910770000000     0          
C1511    C      0.541210000000     0.604870000000     0.939110000000     0          
O1512    O      0.515900000000     0.471600000000     0.885470000000     0          
C1513    C      0.530190000000     0.676520000000     0.871700000000     0          
C1514    C      0.496400000000     0.667520000000     0.852200000000     0          
C1515    C      0.561600000000     0.694360000000     0.853600000000     0          
C1516    C      0.559300000000     0.698100000000     0.813800000000     0          
H1517    H      0.580460000000     0.708360000000     0.800280000000     0          
C1518    C      0.558690000000     0.641300000000     0.922500000000     0          
H1519    H      0.574270000000     0.634330000000     0.900020000000     0          
H1520    H      0.576080000000     0.652470000000     0.941740000000     0          
C1521    C      0.461020000000     0.655060000000     0.874300000000     0          
H1522    H      0.467890000000     0.634350000000     0.892220000000     0          
H1523    H      0.441690000000     0.645060000000     0.856330000000     0          
C1524    C      0.495900000000     0.673100000000     0.812500000000     0          
H1525    H      0.473500000000     0.666850000000     0.798700000000     0          
C1526    C      0.026400000000     0.187100000000     0.293300000000     0          
H1527    H      0.025650000000     0.189440000000     0.266380000000     0          
C1528    C      0.051600000000     0.989000000000     0.382900000000     0          
H1529    H      0.061760000000     0.987660000000     0.357820000000     0          
Zr1530   Zr     0.061960000000     0.020210000000     0.470780000000     0          
O1531    O      0.065400000000     0.078420000000     0.444040000000     0          
O1532    O      0.006530000000     0.104790000000     0.447930000000     0          
O1533    O      0.031950000000     0.169800000000     0.411270000000     0          
O1534    O      0.006780000000     0.025460000000     0.445000000000     0          
O1535    O      0.078500000000     0.009800000000     0.410770000000     0          
C1536    C      0.041210000000     0.104870000000     0.439110000000     0          
O1537    O      0.015900000000     0.971600000000     0.385470000000     0          
C1538    C      0.030190000000     0.176520000000     0.371700000000     0          
C1539    C      0.996400000000     0.167520000000     0.352200000000     0          
C1540    C      0.061600000000     0.194360000000     0.353600000000     0          
C1541    C      0.059300000000     0.198100000000     0.313800000000     0          
H1542    H      0.080460000000     0.208360000000     0.300280000000     0          
C1543    C      0.058690000000     0.141300000000     0.422500000000     0          
H1544    H      0.074270000000     0.134330000000     0.400020000000     0          
H1545    H      0.076080000000     0.152470000000     0.441740000000     0          
C1546    C      0.961020000000     0.155060000000     0.374300000000     0          
H1547    H      0.967890000000     0.134350000000     0.392220000000     0          
H1548    H      0.941690000000     0.145060000000     0.356330000000     0          
C1549    C      0.995900000000     0.173100000000     0.312500000000     0          
H1550    H      0.973500000000     0.166850000000     0.298700000000     0          
C1551    C      0.026400000000     0.812900000000     0.206700000000     0          
H1552    H      0.025650000000     0.810560000000     0.233620000000     0          
C1553    C      0.051600000000     0.011000000000     0.117100000000     0          
H1554    H      0.061760000000     0.012340000000     0.142180000000     0          
Zr1555   Zr     0.061960000000     0.979790000000     0.029220000000     0          
O1556    O      0.065400000000     0.921580000000     0.055960000000     0          
O1557    O      0.006530000000     0.895210000000     0.052070000000     0          
O1558    O      0.031950000000     0.830200000000     0.088730000000     0          
O1559    O      0.006780000000     0.974540000000     0.055000000000     0          
O1560    O      0.078500000000     0.990200000000     0.089230000000     0          
C1561    C      0.041210000000     0.895130000000     0.060890000000     0          
O1562    O      0.015900000000     0.028400000000     0.114530000000     0          
C1563    C      0.030190000000     0.823480000000     0.128300000000     0          
C1564    C      0.996400000000     0.832480000000     0.147800000000     0          
C1565    C      0.061600000000     0.805640000000     0.146400000000     0          
C1566    C      0.059300000000     0.801900000000     0.186200000000     0          
H1567    H      0.080460000000     0.791640000000     0.199720000000     0          
C1568    C      0.058690000000     0.858700000000     0.077500000000     0          
H1569    H      0.074270000000     0.865670000000     0.099980000000     0          
H1570    H      0.076080000000     0.847530000000     0.058260000000     0          
C1571    C      0.961020000000     0.844940000000     0.125700000000     0          
H1572    H      0.967890000000     0.865650000000     0.107780000000     0          
H1573    H      0.941690000000     0.854940000000     0.143670000000     0          
C1574    C      0.995900000000     0.826900000000     0.187500000000     0          
H1575    H      0.973500000000     0.833150000000     0.201300000000     0          
C1576    C      0.526400000000     0.312900000000     0.706700000000     0          
H1577    H      0.525650000000     0.310560000000     0.733620000000     0          
C1578    C      0.551600000000     0.511000000000     0.617100000000     0          
H1579    H      0.561760000000     0.512340000000     0.642180000000     0          
Zr1580   Zr     0.561960000000     0.479790000000     0.529220000000     0          
O1581    O      0.565400000000     0.421580000000     0.555960000000     0          
O1582    O      0.506530000000     0.395210000000     0.552070000000     0          
O1583    O      0.531950000000     0.330200000000     0.588730000000     0          
O1584    O      0.506780000000     0.474540000000     0.555000000000     0          
O1585    O      0.578500000000     0.490200000000     0.589230000000     0          
C1586    C      0.541210000000     0.395130000000     0.560890000000     0          
O1587    O      0.515900000000     0.528400000000     0.614530000000     0          
C1588    C      0.530190000000     0.323480000000     0.628300000000     0          
C1589    C      0.496400000000     0.332480000000     0.647800000000     0          
C1590    C      0.561600000000     0.305640000000     0.646400000000     0          
C1591    C      0.559300000000     0.301900000000     0.686200000000     0          
H1592    H      0.580460000000     0.291640000000     0.699720000000     0          
C1593    C      0.558690000000     0.358700000000     0.577500000000     0          
H1594    H      0.574270000000     0.365670000000     0.599980000000     0          
H1595    H      0.576080000000     0.347530000000     0.558260000000     0          
C1596    C      0.461020000000     0.344940000000     0.625700000000     0          
H1597    H      0.467890000000     0.365650000000     0.607780000000     0          
H1598    H      0.441690000000     0.354940000000     0.643670000000     0          
C1599    C      0.495900000000     0.326900000000     0.687500000000     0          
H1600    H      0.473500000000     0.333150000000     0.701300000000     0          
C1601    C      0.293300000000     0.973600000000     0.312900000000     0          
H1602    H      0.266380000000     0.974350000000     0.310560000000     0          
C1603    C      0.382900000000     0.948400000000     0.511000000000     0          
H1604    H      0.357820000000     0.938240000000     0.512340000000     0          
Zr1605   Zr     0.470780000000     0.938040000000     0.479790000000     0          
O1606    O      0.444040000000     0.934600000000     0.421580000000     0          
O1607    O      0.447930000000     0.993470000000     0.395210000000     0          
O1608    O      0.411270000000     0.968050000000     0.330200000000     0          
O1609    O      0.445000000000     0.993220000000     0.474540000000     0          
O1610    O      0.410770000000     0.921500000000     0.490200000000     0          
C1611    C      0.439110000000     0.958790000000     0.395130000000     0          
O1612    O      0.385470000000     0.984100000000     0.528400000000     0          
C1613    C      0.371700000000     0.969810000000     0.323480000000     0          
C1614    C      0.352200000000     0.003600000000     0.332480000000     0          
C1615    C      0.353600000000     0.938400000000     0.305640000000     0          
C1616    C      0.313800000000     0.940700000000     0.301900000000     0          
H1617    H      0.300280000000     0.919540000000     0.291640000000     0          
C1618    C      0.422500000000     0.941310000000     0.358700000000     0          
H1619    H      0.400020000000     0.925730000000     0.365670000000     0          
H1620    H      0.441740000000     0.923920000000     0.347530000000     0          
C1621    C      0.374300000000     0.038980000000     0.344940000000     0          
H1622    H      0.392220000000     0.032110000000     0.365650000000     0          
H1623    H      0.356330000000     0.058310000000     0.354940000000     0          
C1624    C      0.312500000000     0.004100000000     0.326900000000     0          
H1625    H      0.298700000000     0.026500000000     0.333150000000     0          
C1626    C      0.793300000000     0.473600000000     0.812900000000     0          
H1627    H      0.766380000000     0.474350000000     0.810560000000     0          
C1628    C      0.882900000000     0.448400000000     0.011000000000     0          
H1629    H      0.857820000000     0.438240000000     0.012340000000     0          
Zr1630   Zr     0.970780000000     0.438040000000     0.979790000000     0          
O1631    O      0.944040000000     0.434600000000     0.921580000000     0          
O1632    O      0.947930000000     0.493470000000     0.895210000000     0          
O1633    O      0.911270000000     0.468050000000     0.830200000000     0          
O1634    O      0.945000000000     0.493220000000     0.974540000000     0          
O1635    O      0.910770000000     0.421500000000     0.990200000000     0          
C1636    C      0.939110000000     0.458790000000     0.895130000000     0          
O1637    O      0.885470000000     0.484100000000     0.028400000000     0          
C1638    C      0.871700000000     0.469810000000     0.823480000000     0          
C1639    C      0.852200000000     0.503600000000     0.832480000000     0          
C1640    C      0.853600000000     0.438400000000     0.805640000000     0          
C1641    C      0.813800000000     0.440700000000     0.801900000000     0          
H1642    H      0.800280000000     0.419540000000     0.791640000000     0          
C1643    C      0.922500000000     0.441310000000     0.858700000000     0          
H1644    H      0.900020000000     0.425730000000     0.865670000000     0          
H1645    H      0.941740000000     0.423920000000     0.847530000000     0          
C1646    C      0.874300000000     0.538980000000     0.844940000000     0          
H1647    H      0.892220000000     0.532110000000     0.865650000000     0          
H1648    H      0.856330000000     0.558310000000     0.854940000000     0          
C1649    C      0.812500000000     0.504100000000     0.826900000000     0          
H1650    H      0.798700000000     0.526500000000     0.833150000000     0          
C1651    C      0.706700000000     0.473600000000     0.187100000000     0          
H1652    H      0.733620000000     0.474350000000     0.189440000000     0          
C1653    C      0.617100000000     0.448400000000     0.989000000000     0          
H1654    H      0.642180000000     0.438240000000     0.987660000000     0          
Zr1655   Zr     0.529220000000     0.438040000000     0.020210000000     0          
O1656    O      0.555960000000     0.434600000000     0.078420000000     0          
O1657    O      0.552070000000     0.493470000000     0.104790000000     0          
O1658    O      0.588730000000     0.468050000000     0.169800000000     0          
O1659    O      0.555000000000     0.493220000000     0.025460000000     0          
O1660    O      0.589230000000     0.421500000000     0.009800000000     0          
C1661    C      0.560890000000     0.458790000000     0.104870000000     0          
O1662    O      0.614530000000     0.484100000000     0.971600000000     0          
C1663    C      0.628300000000     0.469810000000     0.176520000000     0          
C1664    C      0.647800000000     0.503600000000     0.167520000000     0          
C1665    C      0.646400000000     0.438400000000     0.194360000000     0          
C1666    C      0.686200000000     0.440700000000     0.198100000000     0          
H1667    H      0.699720000000     0.419540000000     0.208360000000     0          
C1668    C      0.577500000000     0.441310000000     0.141300000000     0          
H1669    H      0.599980000000     0.425730000000     0.134330000000     0          
H1670    H      0.558260000000     0.423920000000     0.152470000000     0          
C1671    C      0.625700000000     0.538980000000     0.155060000000     0          
H1672    H      0.607780000000     0.532110000000     0.134350000000     0          
H1673    H      0.643670000000     0.558310000000     0.145060000000     0          
C1674    C      0.687500000000     0.504100000000     0.173100000000     0          
H1675    H      0.701300000000     0.526500000000     0.166850000000     0          
C1676    C      0.206700000000     0.973600000000     0.687100000000     0          
H1677    H      0.233620000000     0.974350000000     0.689440000000     0          
C1678    C      0.117100000000     0.948400000000     0.489000000000     0          
H1679    H      0.142180000000     0.938240000000     0.487660000000     0          
Zr1680   Zr     0.029220000000     0.938040000000     0.520210000000     0          
O1681    O      0.055960000000     0.934600000000     0.578420000000     0          
O1682    O      0.052070000000     0.993470000000     0.604790000000     0          
O1683    O      0.088730000000     0.968050000000     0.669800000000     0          
O1684    O      0.055000000000     0.993220000000     0.525460000000     0          
O1685    O      0.089230000000     0.921500000000     0.509800000000     0          
C1686    C      0.060890000000     0.958790000000     0.604870000000     0          
O1687    O      0.114530000000     0.984100000000     0.471600000000     0          
C1688    C      0.128300000000     0.969810000000     0.676520000000     0          
C1689    C      0.147800000000     0.003600000000     0.667520000000     0          
C1690    C      0.146400000000     0.938400000000     0.694360000000     0          
C1691    C      0.186200000000     0.940700000000     0.698100000000     0          
H1692    H      0.199720000000     0.919540000000     0.708360000000     0          
C1693    C      0.077500000000     0.941310000000     0.641300000000     0          
H1694    H      0.099980000000     0.925730000000     0.634330000000     0          
H1695    H      0.058260000000     0.923920000000     0.652470000000     0          
C1696    C      0.125700000000     0.038980000000     0.655060000000     0          
H1697    H      0.107780000000     0.032110000000     0.634350000000     0          
H1698    H      0.143670000000     0.058310000000     0.645060000000     0          
C1699    C      0.187500000000     0.004100000000     0.673100000000     0          
H1700    H      0.201300000000     0.026500000000     0.666850000000     0          
C1701    C      0.793300000000     0.526400000000     0.687100000000     0          
H1702    H      0.766380000000     0.525650000000     0.689440000000     0          
C1703    C      0.882900000000     0.551600000000     0.489000000000     0          
H1704    H      0.857820000000     0.561760000000     0.487660000000     0          
Zr1705   Zr     0.970780000000     0.561960000000     0.520210000000     0          
O1706    O      0.944040000000     0.565400000000     0.578420000000     0          
O1707    O      0.947930000000     0.506530000000     0.604790000000     0          
O1708    O      0.911270000000     0.531950000000     0.669800000000     0          
O1709    O      0.945000000000     0.506780000000     0.525460000000     0          
O1710    O      0.910770000000     0.578500000000     0.509800000000     0          
C1711    C      0.939110000000     0.541210000000     0.604870000000     0          
O1712    O      0.885470000000     0.515900000000     0.471600000000     0          
C1713    C      0.871700000000     0.530190000000     0.676520000000     0          
C1714    C      0.852200000000     0.496400000000     0.667520000000     0          
C1715    C      0.853600000000     0.561600000000     0.694360000000     0          
C1716    C      0.813800000000     0.559300000000     0.698100000000     0          
H1717    H      0.800280000000     0.580460000000     0.708360000000     0          
C1718    C      0.922500000000     0.558690000000     0.641300000000     0          
H1719    H      0.900020000000     0.574270000000     0.634330000000     0          
H1720    H      0.941740000000     0.576080000000     0.652470000000     0          
C1721    C      0.874300000000     0.461020000000     0.655060000000     0          
H1722    H      0.892220000000     0.467890000000     0.634350000000     0          
H1723    H      0.856330000000     0.441690000000     0.645060000000     0          
C1724    C      0.812500000000     0.495900000000     0.673100000000     0          
H1725    H      0.798700000000     0.473500000000     0.666850000000     0          
C1726    C      0.293300000000     0.026400000000     0.187100000000     0          
H1727    H      0.266380000000     0.025650000000     0.189440000000     0          
C1728    C      0.382900000000     0.051600000000     0.989000000000     0          
H1729    H      0.357820000000     0.061760000000     0.987660000000     0          
Zr1730   Zr     0.470780000000     0.061960000000     0.020210000000     0          
O1731    O      0.444040000000     0.065400000000     0.078420000000     0          
O1732    O      0.447930000000     0.006530000000     0.104790000000     0          
O1733    O      0.411270000000     0.031950000000     0.169800000000     0          
O1734    O      0.445000000000     0.006780000000     0.025460000000     0          
O1735    O      0.410770000000     0.078500000000     0.009800000000     0          
C1736    C      0.439110000000     0.041210000000     0.104870000000     0          
O1737    O      0.385470000000     0.015900000000     0.971600000000     0          
C1738    C      0.371700000000     0.030190000000     0.176520000000     0          
C1739    C      0.352200000000     0.996400000000     0.167520000000     0          
C1740    C      0.353600000000     0.061600000000     0.194360000000     0          
C1741    C      0.313800000000     0.059300000000     0.198100000000     0          
H1742    H      0.300280000000     0.080460000000     0.208360000000     0          
C1743    C      0.422500000000     0.058690000000     0.141300000000     0          
H1744    H      0.400020000000     0.074270000000     0.134330000000     0          
H1745    H      0.441740000000     0.076080000000     0.152470000000     0          
C1746    C      0.374300000000     0.961020000000     0.155060000000     0          
H1747    H      0.392220000000     0.967890000000     0.134350000000     0          
H1748    H      0.356330000000     0.941690000000     0.145060000000     0          
C1749    C      0.312500000000     0.995900000000     0.173100000000     0          
H1750    H      0.298700000000     0.973500000000     0.166850000000     0          
C1751    C      0.206700000000     0.026400000000     0.812900000000     0          
H1752    H      0.233620000000     0.025650000000     0.810560000000     0          
C1753    C      0.117100000000     0.051600000000     0.011000000000     0          
H1754    H      0.142180000000     0.061760000000     0.012340000000     0          
Zr1755   Zr     0.029220000000     0.061960000000     0.979790000000     0          
O1756    O      0.055960000000     0.065400000000     0.921580000000     0          
O1757    O      0.052070000000     0.006530000000     0.895210000000     0          
O1758    O      0.088730000000     0.031950000000     0.830200000000     0          
O1759    O      0.055000000000     0.006780000000     0.974540000000     0          
O1760    O      0.089230000000     0.078500000000     0.990200000000     0          
C1761    C      0.060890000000     0.041210000000     0.895130000000     0          
O1762    O      0.114530000000     0.015900000000     0.028400000000     0          
C1763    C      0.128300000000     0.030190000000     0.823480000000     0          
C1764    C      0.147800000000     0.996400000000     0.832480000000     0          
C1765    C      0.146400000000     0.061600000000     0.805640000000     0          
C1766    C      0.186200000000     0.059300000000     0.801900000000     0          
H1767    H      0.199720000000     0.080460000000     0.791640000000     0          
C1768    C      0.077500000000     0.058690000000     0.858700000000     0          
H1769    H      0.099980000000     0.074270000000     0.865670000000     0          
H1770    H      0.058260000000     0.076080000000     0.847530000000     0          
C1771    C      0.125700000000     0.961020000000     0.844940000000     0          
H1772    H      0.107780000000     0.967890000000     0.865650000000     0          
H1773    H      0.143670000000     0.941690000000     0.854940000000     0          
C1774    C      0.187500000000     0.995900000000     0.826900000000     0          
H1775    H      0.201300000000     0.973500000000     0.833150000000     0          
C1776    C      0.706700000000     0.526400000000     0.312900000000     0          
H1777    H      0.733620000000     0.525650000000     0.310560000000     0          
C1778    C      0.617100000000     0.551600000000     0.511000000000     0          
H1779    H      0.642180000000     0.561760000000     0.512340000000     0          
Zr1780   Zr     0.529220000000     0.561960000000     0.479790000000     0          
O1781    O      0.555960000000     0.565400000000     0.421580000000     0          
O1782    O      0.552070000000     0.506530000000     0.395210000000     0          
O1783    O      0.588730000000     0.531950000000     0.330200000000     0          
O1784    O      0.555000000000     0.506780000000     0.474540000000     0          
O1785    O      0.589230000000     0.578500000000     0.490200000000     0          
C1786    C      0.560890000000     0.541210000000     0.395130000000     0          
O1787    O      0.614530000000     0.515900000000     0.528400000000     0          
C1788    C      0.628300000000     0.530190000000     0.323480000000     0          
C1789    C      0.647800000000     0.496400000000     0.332480000000     0          
C1790    C      0.646400000000     0.561600000000     0.305640000000     0          
C1791    C      0.686200000000     0.559300000000     0.301900000000     0          
H1792    H      0.699720000000     0.580460000000     0.291640000000     0          
C1793    C      0.577500000000     0.558690000000     0.358700000000     0          
H1794    H      0.599980000000     0.574270000000     0.365670000000     0          
H1795    H      0.558260000000     0.576080000000     0.347530000000     0          
C1796    C      0.625700000000     0.461020000000     0.344940000000     0          
H1797    H      0.607780000000     0.467890000000     0.365650000000     0          
H1798    H      0.643670000000     0.441690000000     0.354940000000     0          
C1799    C      0.687500000000     0.495900000000     0.326900000000     0          
H1800    H      0.701300000000     0.473500000000     0.333150000000     0          
C1801    C      0.543300000000     0.062900000000     0.776400000000     0          
H1802    H      0.516380000000     0.060560000000     0.775650000000     0          
C1803    C      0.632900000000     0.261000000000     0.801600000000     0          
H1804    H      0.607820000000     0.262340000000     0.811760000000     0          
Zr1805   Zr     0.720780000000     0.229790000000     0.811960000000     0          
O1806    O      0.694040000000     0.171580000000     0.815400000000     0          
O1807    O      0.697930000000     0.145210000000     0.756530000000     0          
O1808    O      0.661270000000     0.080200000000     0.781950000000     0          
O1809    O      0.695000000000     0.224540000000     0.756780000000     0          
O1810    O      0.660770000000     0.240200000000     0.828500000000     0          
C1811    C      0.689110000000     0.145130000000     0.791210000000     0          
O1812    O      0.635470000000     0.278400000000     0.765900000000     0          
C1813    C      0.621700000000     0.073480000000     0.780190000000     0          
C1814    C      0.602200000000     0.082480000000     0.746400000000     0          
C1815    C      0.603600000000     0.055640000000     0.811600000000     0          
C1816    C      0.563800000000     0.051900000000     0.809300000000     0          
H1817    H      0.550280000000     0.041640000000     0.830460000000     0          
C1818    C      0.672500000000     0.108700000000     0.808690000000     0          
H1819    H      0.650020000000     0.115670000000     0.824270000000     0          
H1820    H      0.691740000000     0.097530000000     0.826080000000     0          
C1821    C      0.624300000000     0.094940000000     0.711020000000     0          
H1822    H      0.642220000000     0.115650000000     0.717890000000     0          
H1823    H      0.606330000000     0.104940000000     0.691690000000     0          
C1824    C      0.562500000000     0.076900000000     0.745900000000     0          
H1825    H      0.548700000000     0.083150000000     0.723500000000     0          
C1826    C      0.043300000000     0.562900000000     0.276400000000     0          
H1827    H      0.016380000000     0.560560000000     0.275650000000     0          
C1828    C      0.132900000000     0.761000000000     0.301600000000     0          
H1829    H      0.107820000000     0.762340000000     0.311760000000     0          
Zr1830   Zr     0.220780000000     0.729790000000     0.311960000000     0          
O1831    O      0.194040000000     0.671580000000     0.315400000000     0          
O1832    O      0.197930000000     0.645210000000     0.256530000000     0          
O1833    O      0.161270000000     0.580200000000     0.281950000000     0          
O1834    O      0.195000000000     0.724540000000     0.256780000000     0          
O1835    O      0.160770000000     0.740200000000     0.328500000000     0          
C1836    C      0.189110000000     0.645130000000     0.291210000000     0          
O1837    O      0.135470000000     0.778400000000     0.265900000000     0          
C1838    C      0.121700000000     0.573480000000     0.280190000000     0          
C1839    C      0.102200000000     0.582480000000     0.246400000000     0          
C1840    C      0.103600000000     0.555640000000     0.311600000000     0          
C1841    C      0.063800000000     0.551900000000     0.309300000000     0          
H1842    H      0.050280000000     0.541640000000     0.330460000000     0          
C1843    C      0.172500000000     0.608700000000     0.308690000000     0          
H1844    H      0.150020000000     0.615670000000     0.324270000000     0          
H1845    H      0.191740000000     0.597530000000     0.326080000000     0          
C1846    C      0.124300000000     0.594940000000     0.211020000000     0          
H1847    H      0.142220000000     0.615650000000     0.217890000000     0          
H1848    H      0.106330000000     0.604940000000     0.191690000000     0          
C1849    C      0.062500000000     0.576900000000     0.245900000000     0          
H1850    H      0.048700000000     0.583150000000     0.223500000000     0          
C1851    C      0.956700000000     0.937100000000     0.276400000000     0          
H1852    H      0.983620000000     0.939440000000     0.275650000000     0          
C1853    C      0.867100000000     0.739000000000     0.301600000000     0          
H1854    H      0.892180000000     0.737660000000     0.311760000000     0          
Zr1855   Zr     0.779220000000     0.770210000000     0.311960000000     0          
O1856    O      0.805960000000     0.828420000000     0.315400000000     0          
O1857    O      0.802070000000     0.854790000000     0.256530000000     0          
O1858    O      0.838730000000     0.919800000000     0.281950000000     0          
O1859    O      0.805000000000     0.775460000000     0.256780000000     0          
O1860    O      0.839230000000     0.759800000000     0.328500000000     0          
C1861    C      0.810890000000     0.854870000000     0.291210000000     0          
O1862    O      0.864530000000     0.721600000000     0.265900000000     0          
C1863    C      0.878300000000     0.926520000000     0.280190000000     0          
C1864    C      0.897800000000     0.917520000000     0.246400000000     0          
C1865    C      0.896400000000     0.944360000000     0.311600000000     0          
C1866    C      0.936200000000     0.948100000000     0.309300000000     0          
H1867    H      0.949720000000     0.958360000000     0.330460000000     0          
C1868    C      0.827500000000     0.891300000000     0.308690000000     0          
H1869    H      0.849980000000     0.884330000000     0.324270000000     0          
H1870    H      0.808260000000     0.902470000000     0.326080000000     0          
C1871    C      0.875700000000     0.905060000000     0.211020000000     0          
H1872    H      0.857780000000     0.884350000000     0.217890000000     0          
H1873    H      0.893670000000     0.895060000000     0.191690000000     0          
C1874    C      0.937500000000     0.923100000000     0.245900000000     0          
H1875    H      0.951300000000     0.916850000000     0.223500000000     0          
C1876    C      0.456700000000     0.437100000000     0.776400000000     0          
H1877    H      0.483620000000     0.439440000000     0.775650000000     0          
C1878    C      0.367100000000     0.239000000000     0.801600000000     0          
H1879    H      0.392180000000     0.237660000000     0.811760000000     0          
Zr1880   Zr     0.279220000000     0.270210000000     0.811960000000     0          
O1881    O      0.305960000000     0.328420000000     0.815400000000     0          
O1882    O      0.302070000000     0.354790000000     0.756530000000     0          
O1883    O      0.338730000000     0.419800000000     0.781950000000     0          
O1884    O      0.305000000000     0.275460000000     0.756780000000     0          
O1885    O      0.339230000000     0.259800000000     0.828500000000     0          
C1886    C      0.310890000000     0.354870000000     0.791210000000     0          
O1887    O      0.364530000000     0.221600000000     0.765900000000     0          
C1888    C      0.378300000000     0.426520000000     0.780190000000     0          
C1889    C      0.397800000000     0.417520000000     0.746400000000     0          
C1890    C      0.396400000000     0.444360000000     0.811600000000     0          
C1891    C      0.436200000000     0.448100000000     0.809300000000     0          
H1892    H      0.449720000000     0.458360000000     0.830460000000     0          
C1893    C      0.327500000000     0.391300000000     0.808690000000     0          
H1894    H      0.349980000000     0.384330000000     0.824270000000     0          
H1895    H      0.308260000000     0.402470000000     0.826080000000     0          
C1896    C      0.375700000000     0.405060000000     0.711020000000     0          
H1897    H      0.357780000000     0.384350000000     0.717890000000     0          
H1898    H      0.393670000000     0.395060000000     0.691690000000     0          
C1899    C      0.437500000000     0.423100000000     0.745900000000     0          
H1900    H      0.451300000000     0.416850000000     0.723500000000     0          
C1901    C      0.043300000000     0.437100000000     0.223600000000     0          
H1902    H      0.016380000000     0.439440000000     0.224350000000     0          
C1903    C      0.132900000000     0.239000000000     0.198400000000     0          
H1904    H      0.107820000000     0.237660000000     0.188240000000     0          
Zr1905   Zr     0.220780000000     0.270210000000     0.188040000000     0          
O1906    O      0.194040000000     0.328420000000     0.184600000000     0          
O1907    O      0.197930000000     0.354790000000     0.243470000000     0          
O1908    O      0.161270000000     0.419800000000     0.218050000000     0          
O1909    O      0.195000000000     0.275460000000     0.243220000000     0          
O1910    O      0.160770000000     0.259800000000     0.171500000000     0          
C1911    C      0.189110000000     0.354870000000     0.208790000000     0          
O1912    O      0.135470000000     0.221600000000     0.234100000000     0          
C1913    C      0.121700000000     0.426520000000     0.219810000000     0          
C1914    C      0.102200000000     0.417520000000     0.253600000000     0          
C1915    C      0.103600000000     0.444360000000     0.188400000000     0          
C1916    C      0.063800000000     0.448100000000     0.190700000000     0          
H1917    H      0.050280000000     0.458360000000     0.169540000000     0          
C1918    C      0.172500000000     0.391300000000     0.191310000000     0          
H1919    H      0.150020000000     0.384330000000     0.175730000000     0          
H1920    H      0.191740000000     0.402470000000     0.173920000000     0          
C1921    C      0.124300000000     0.405060000000     0.288980000000     0          
H1922    H      0.142220000000     0.384350000000     0.282110000000     0          
H1923    H      0.106330000000     0.395060000000     0.308310000000     0          
C1924    C      0.062500000000     0.423100000000     0.254100000000     0          
H1925    H      0.048700000000     0.416850000000     0.276500000000     0          
C1926    C      0.543300000000     0.937100000000     0.723600000000     0          
H1927    H      0.516380000000     0.939440000000     0.724350000000     0          
C1928    C      0.632900000000     0.739000000000     0.698400000000     0          
H1929    H      0.607820000000     0.737660000000     0.688240000000     0          
Zr1930   Zr     0.720780000000     0.770210000000     0.688040000000     0          
O1931    O      0.694040000000     0.828420000000     0.684600000000     0          
O1932    O      0.697930000000     0.854790000000     0.743470000000     0          
O1933    O      0.661270000000     0.919800000000     0.718050000000     0          
O1934    O      0.695000000000     0.775460000000     0.743220000000     0          
O1935    O      0.660770000000     0.759800000000     0.671500000000     0          
C1936    C      0.689110000000     0.854870000000     0.708790000000     0          
O1937    O      0.635470000000     0.721600000000     0.734100000000     0          
C1938    C      0.621700000000     0.926520000000     0.719810000000     0          
C1939    C      0.602200000000     0.917520000000     0.753600000000     0          
C1940    C      0.603600000000     0.944360000000     0.688400000000     0          
C1941    C      0.563800000000     0.948100000000     0.690700000000     0          
H1942    H      0.550280000000     0.958360000000     0.669540000000     0          
C1943    C      0.672500000000     0.891300000000     0.691310000000     0          
H1944    H      0.650020000000     0.884330000000     0.675730000000     0          
H1945    H      0.691740000000     0.902470000000     0.673920000000     0          
C1946    C      0.624300000000     0.905060000000     0.788980000000     0          
H1947    H      0.642220000000     0.884350000000     0.782110000000     0          
H1948    H      0.606330000000     0.895060000000     0.808310000000     0          
C1949    C      0.562500000000     0.923100000000     0.754100000000     0          
H1950    H      0.548700000000     0.916850000000     0.776500000000     0          
C1951    C      0.456700000000     0.562900000000     0.723600000000     0          
H1952    H      0.483620000000     0.560560000000     0.724350000000     0          
C1953    C      0.367100000000     0.761000000000     0.698400000000     0          
H1954    H      0.392180000000     0.762340000000     0.688240000000     0          
Zr1955   Zr     0.279220000000     0.729790000000     0.688040000000     0          
O1956    O      0.305960000000     0.671580000000     0.684600000000     0          
O1957    O      0.302070000000     0.645210000000     0.743470000000     0          
O1958    O      0.338730000000     0.580200000000     0.718050000000     0          
O1959    O      0.305000000000     0.724540000000     0.743220000000     0          
O1960    O      0.339230000000     0.740200000000     0.671500000000     0          
C1961    C      0.310890000000     0.645130000000     0.708790000000     0          
O1962    O      0.364530000000     0.778400000000     0.734100000000     0          
C1963    C      0.378300000000     0.573480000000     0.719810000000     0          
C1964    C      0.397800000000     0.582480000000     0.753600000000     0          
C1965    C      0.396400000000     0.555640000000     0.688400000000     0          
C1966    C      0.436200000000     0.551900000000     0.690700000000     0          
H1967    H      0.449720000000     0.541640000000     0.669540000000     0          
C1968    C      0.327500000000     0.608700000000     0.691310000000     0          
H1969    H      0.349980000000     0.615670000000     0.675730000000     0          
H1970    H      0.308260000000     0.597530000000     0.673920000000     0          
C1971    C      0.375700000000     0.594940000000     0.788980000000     0          
H1972    H      0.357780000000     0.615650000000     0.782110000000     0          
H1973    H      0.393670000000     0.604940000000     0.808310000000     0          
C1974    C      0.437500000000     0.576900000000     0.754100000000     0          
H1975    H      0.451300000000     0.583150000000     0.776500000000     0          
C1976    C      0.956700000000     0.062900000000     0.223600000000     0          
H1977    H      0.983620000000     0.060560000000     0.224350000000     0          
C1978    C      0.867100000000     0.261000000000     0.198400000000     0          
H1979    H      0.892180000000     0.262340000000     0.188240000000     0          
Zr1980   Zr     0.779220000000     0.229790000000     0.188040000000     0          
O1981    O      0.805960000000     0.171580000000     0.184600000000     0          
O1982    O      0.802070000000     0.145210000000     0.243470000000     0          
O1983    O      0.838730000000     0.080200000000     0.218050000000     0          
O1984    O      0.805000000000     0.224540000000     0.243220000000     0          
O1985    O      0.839230000000     0.240200000000     0.171500000000     0          
C1986    C      0.810890000000     0.145130000000     0.208790000000     0          
O1987    O      0.864530000000     0.278400000000     0.234100000000     0          
C1988    C      0.878300000000     0.073480000000     0.219810000000     0          
C1989    C      0.897800000000     0.082480000000     0.253600000000     0          
C1990    C      0.896400000000     0.055640000000     0.188400000000     0          
C1991    C      0.936200000000     0.051900000000     0.190700000000     0          
H1992    H      0.949720000000     0.041640000000     0.169540000000     0          
C1993    C      0.827500000000     0.108700000000     0.191310000000     0          
H1994    H      0.849980000000     0.115670000000     0.175730000000     0          
H1995    H      0.808260000000     0.097530000000     0.173920000000     0          
C1996    C      0.875700000000     0.094940000000     0.288980000000     0          
H1997    H      0.857780000000     0.115650000000     0.282110000000     0          
H1998    H      0.893670000000     0.104940000000     0.308310000000     0          
C1999    C      0.937500000000     0.076900000000     0.254100000000     0          
H2000    H      0.951300000000     0.083150000000     0.276500000000     0          
C2001    C      0.562900000000     0.723600000000     0.456700000000     0          
H2002    H      0.560560000000     0.724350000000     0.483620000000     0          
C2003    C      0.761000000000     0.698400000000     0.367100000000     0          
H2004    H      0.762340000000     0.688240000000     0.392180000000     0          
Zr2005   Zr     0.729790000000     0.688040000000     0.279220000000     0          
O2006    O      0.671580000000     0.684600000000     0.305960000000     0          
O2007    O      0.645210000000     0.743470000000     0.302070000000     0          
O2008    O      0.580200000000     0.718050000000     0.338730000000     0          
O2009    O      0.724540000000     0.743220000000     0.305000000000     0          
O2010    O      0.740200000000     0.671500000000     0.339230000000     0          
C2011    C      0.645130000000     0.708790000000     0.310890000000     0          
O2012    O      0.778400000000     0.734100000000     0.364530000000     0          
C2013    C      0.573480000000     0.719810000000     0.378300000000     0          
C2014    C      0.582480000000     0.753600000000     0.397800000000     0          
C2015    C      0.555640000000     0.688400000000     0.396400000000     0          
C2016    C      0.551900000000     0.690700000000     0.436200000000     0          
H2017    H      0.541640000000     0.669540000000     0.449720000000     0          
C2018    C      0.608700000000     0.691310000000     0.327500000000     0          
H2019    H      0.615670000000     0.675730000000     0.349980000000     0          
H2020    H      0.597530000000     0.673920000000     0.308260000000     0          
C2021    C      0.594940000000     0.788980000000     0.375700000000     0          
H2022    H      0.615650000000     0.782110000000     0.357780000000     0          
H2023    H      0.604940000000     0.808310000000     0.393670000000     0          
C2024    C      0.576900000000     0.754100000000     0.437500000000     0          
H2025    H      0.583150000000     0.776500000000     0.451300000000     0          
C2026    C      0.062900000000     0.223600000000     0.956700000000     0          
H2027    H      0.060560000000     0.224350000000     0.983620000000     0          
C2028    C      0.261000000000     0.198400000000     0.867100000000     0          
H2029    H      0.262340000000     0.188240000000     0.892180000000     0          
Zr2030   Zr     0.229790000000     0.188040000000     0.779220000000     0          
O2031    O      0.171580000000     0.184600000000     0.805960000000     0          
O2032    O      0.145210000000     0.243470000000     0.802070000000     0          
O2033    O      0.080200000000     0.218050000000     0.838730000000     0          
O2034    O      0.224540000000     0.243220000000     0.805000000000     0          
O2035    O      0.240200000000     0.171500000000     0.839230000000     0          
C2036    C      0.145130000000     0.208790000000     0.810890000000     0          
O2037    O      0.278400000000     0.234100000000     0.864530000000     0          
C2038    C      0.073480000000     0.219810000000     0.878300000000     0          
C2039    C      0.082480000000     0.253600000000     0.897800000000     0          
C2040    C      0.055640000000     0.188400000000     0.896400000000     0          
C2041    C      0.051900000000     0.190700000000     0.936200000000     0          
H2042    H      0.041640000000     0.169540000000     0.949720000000     0          
C2043    C      0.108700000000     0.191310000000     0.827500000000     0          
H2044    H      0.115670000000     0.175730000000     0.849980000000     0          
H2045    H      0.097530000000     0.173920000000     0.808260000000     0          
C2046    C      0.094940000000     0.288980000000     0.875700000000     0          
H2047    H      0.115650000000     0.282110000000     0.857780000000     0          
H2048    H      0.104940000000     0.308310000000     0.893670000000     0          
C2049    C      0.076900000000     0.254100000000     0.937500000000     0          
H2050    H      0.083150000000     0.276500000000     0.951300000000     0          
C2051    C      0.437100000000     0.223600000000     0.043300000000     0          
H2052    H      0.439440000000     0.224350000000     0.016380000000     0          
C2053    C      0.239000000000     0.198400000000     0.132900000000     0          
H2054    H      0.237660000000     0.188240000000     0.107820000000     0          
Zr2055   Zr     0.270210000000     0.188040000000     0.220780000000     0          
O2056    O      0.328420000000     0.184600000000     0.194040000000     0          
O2057    O      0.354790000000     0.243470000000     0.197930000000     0          
O2058    O      0.419800000000     0.218050000000     0.161270000000     0          
O2059    O      0.275460000000     0.243220000000     0.195000000000     0          
O2060    O      0.259800000000     0.171500000000     0.160770000000     0          
C2061    C      0.354870000000     0.208790000000     0.189110000000     0          
O2062    O      0.221600000000     0.234100000000     0.135470000000     0          
C2063    C      0.426520000000     0.219810000000     0.121700000000     0          
C2064    C      0.417520000000     0.253600000000     0.102200000000     0          
C2065    C      0.444360000000     0.188400000000     0.103600000000     0          
C2066    C      0.448100000000     0.190700000000     0.063800000000     0          
H2067    H      0.458360000000     0.169540000000     0.050280000000     0          
C2068    C      0.391300000000     0.191310000000     0.172500000000     0          
H2069    H      0.384330000000     0.175730000000     0.150020000000     0          
H2070    H      0.402470000000     0.173920000000     0.191740000000     0          
C2071    C      0.405060000000     0.288980000000     0.124300000000     0          
H2072    H      0.384350000000     0.282110000000     0.142220000000     0          
H2073    H      0.395060000000     0.308310000000     0.106330000000     0          
C2074    C      0.423100000000     0.254100000000     0.062500000000     0          
H2075    H      0.416850000000     0.276500000000     0.048700000000     0          
C2076    C      0.937100000000     0.723600000000     0.543300000000     0          
H2077    H      0.939440000000     0.724350000000     0.516380000000     0          
C2078    C      0.739000000000     0.698400000000     0.632900000000     0          
H2079    H      0.737660000000     0.688240000000     0.607820000000     0          
Zr2080   Zr     0.770210000000     0.688040000000     0.720780000000     0          
O2081    O      0.828420000000     0.684600000000     0.694040000000     0          
O2082    O      0.854790000000     0.743470000000     0.697930000000     0          
O2083    O      0.919800000000     0.718050000000     0.661270000000     0          
O2084    O      0.775460000000     0.743220000000     0.695000000000     0          
O2085    O      0.759800000000     0.671500000000     0.660770000000     0          
C2086    C      0.854870000000     0.708790000000     0.689110000000     0          
O2087    O      0.721600000000     0.734100000000     0.635470000000     0          
C2088    C      0.926520000000     0.719810000000     0.621700000000     0          
C2089    C      0.917520000000     0.753600000000     0.602200000000     0          
C2090    C      0.944360000000     0.688400000000     0.603600000000     0          
C2091    C      0.948100000000     0.690700000000     0.563800000000     0          
H2092    H      0.958360000000     0.669540000000     0.550280000000     0          
C2093    C      0.891300000000     0.691310000000     0.672500000000     0          
H2094    H      0.884330000000     0.675730000000     0.650020000000     0          
H2095    H      0.902470000000     0.673920000000     0.691740000000     0          
C2096    C      0.905060000000     0.788980000000     0.624300000000     0          
H2097    H      0.884350000000     0.782110000000     0.642220000000     0          
H2098    H      0.895060000000     0.808310000000     0.606330000000     0          
C2099    C      0.923100000000     0.754100000000     0.562500000000     0          
H2100    H      0.916850000000     0.776500000000     0.548700000000     0          
C2101    C      0.937100000000     0.276400000000     0.956700000000     0          
H2102    H      0.939440000000     0.275650000000     0.983620000000     0          
C2103    C      0.739000000000     0.301600000000     0.867100000000     0          
H2104    H      0.737660000000     0.311760000000     0.892180000000     0          
Zr2105   Zr     0.770210000000     0.311960000000     0.779220000000     0          
O2106    O      0.828420000000     0.315400000000     0.805960000000     0          
O2107    O      0.854790000000     0.256530000000     0.802070000000     0          
O2108    O      0.919800000000     0.281950000000     0.838730000000     0          
O2109    O      0.775460000000     0.256780000000     0.805000000000     0          
O2110    O      0.759800000000     0.328500000000     0.839230000000     0          
C2111    C      0.854870000000     0.291210000000     0.810890000000     0          
O2112    O      0.721600000000     0.265900000000     0.864530000000     0          
C2113    C      0.926520000000     0.280190000000     0.878300000000     0          
C2114    C      0.917520000000     0.246400000000     0.897800000000     0          
C2115    C      0.944360000000     0.311600000000     0.896400000000     0          
C2116    C      0.948100000000     0.309300000000     0.936200000000     0          
H2117    H      0.958360000000     0.330460000000     0.949720000000     0          
C2118    C      0.891300000000     0.308690000000     0.827500000000     0          
H2119    H      0.884330000000     0.324270000000     0.849980000000     0          
H2120    H      0.902470000000     0.326080000000     0.808260000000     0          
C2121    C      0.905060000000     0.211020000000     0.875700000000     0          
H2122    H      0.884350000000     0.217890000000     0.857780000000     0          
H2123    H      0.895060000000     0.191690000000     0.893670000000     0          
C2124    C      0.923100000000     0.245900000000     0.937500000000     0          
H2125    H      0.916850000000     0.223500000000     0.951300000000     0          
C2126    C      0.437100000000     0.776400000000     0.456700000000     0          
H2127    H      0.439440000000     0.775650000000     0.483620000000     0          
C2128    C      0.239000000000     0.801600000000     0.367100000000     0          
H2129    H      0.237660000000     0.811760000000     0.392180000000     0          
Zr2130   Zr     0.270210000000     0.811960000000     0.279220000000     0          
O2131    O      0.328420000000     0.815400000000     0.305960000000     0          
O2132    O      0.354790000000     0.756530000000     0.302070000000     0          
O2133    O      0.419800000000     0.781950000000     0.338730000000     0          
O2134    O      0.275460000000     0.756780000000     0.305000000000     0          
O2135    O      0.259800000000     0.828500000000     0.339230000000     0          
C2136    C      0.354870000000     0.791210000000     0.310890000000     0          
O2137    O      0.221600000000     0.765900000000     0.364530000000     0          
C2138    C      0.426520000000     0.780190000000     0.378300000000     0          
C2139    C      0.417520000000     0.746400000000     0.397800000000     0          
C2140    C      0.444360000000     0.811600000000     0.396400000000     0          
C2141    C      0.448100000000     0.809300000000     0.436200000000     0          
H2142    H      0.458360000000     0.830460000000     0.449720000000     0          
C2143    C      0.391300000000     0.808690000000     0.327500000000     0          
H2144    H      0.384330000000     0.824270000000     0.349980000000     0          
H2145    H      0.402470000000     0.826080000000     0.308260000000     0          
C2146    C      0.405060000000     0.711020000000     0.375700000000     0          
H2147    H      0.384350000000     0.717890000000     0.357780000000     0          
H2148    H      0.395060000000     0.691690000000     0.393670000000     0          
C2149    C      0.423100000000     0.745900000000     0.437500000000     0          
H2150    H      0.416850000000     0.723500000000     0.451300000000     0          
C2151    C      0.062900000000     0.776400000000     0.543300000000     0          
H2152    H      0.060560000000     0.775650000000     0.516380000000     0          
C2153    C      0.261000000000     0.801600000000     0.632900000000     0          
H2154    H      0.262340000000     0.811760000000     0.607820000000     0          
Zr2155   Zr     0.229790000000     0.811960000000     0.720780000000     0          
O2156    O      0.171580000000     0.815400000000     0.694040000000     0          
O2157    O      0.145210000000     0.756530000000     0.697930000000     0          
O2158    O      0.080200000000     0.781950000000     0.661270000000     0          
O2159    O      0.224540000000     0.756780000000     0.695000000000     0          
O2160    O      0.240200000000     0.828500000000     0.660770000000     0          
C2161    C      0.145130000000     0.791210000000     0.689110000000     0          
O2162    O      0.278400000000     0.765900000000     0.635470000000     0          
C2163    C      0.073480000000     0.780190000000     0.621700000000     0          
C2164    C      0.082480000000     0.746400000000     0.602200000000     0          
C2165    C      0.055640000000     0.811600000000     0.603600000000     0          
C2166    C      0.051900000000     0.809300000000     0.563800000000     0          
H2167    H      0.041640000000     0.830460000000     0.550280000000     0          
C2168    C      0.108700000000     0.808690000000     0.672500000000     0          
H2169    H      0.115670000000     0.824270000000     0.650020000000     0          
H2170    H      0.097530000000     0.826080000000     0.691740000000     0          
C2171    C      0.094940000000     0.711020000000     0.624300000000     0          
H2172    H      0.115650000000     0.717890000000     0.642220000000     0          
H2173    H      0.104940000000     0.691690000000     0.606330000000     0          
C2174    C      0.076900000000     0.745900000000     0.562500000000     0          
H2175    H      0.083150000000     0.723500000000     0.548700000000     0          
C2176    C      0.562900000000     0.276400000000     0.043300000000     0          
H2177    H      0.560560000000     0.275650000000     0.016380000000     0          
C2178    C      0.761000000000     0.301600000000     0.132900000000     0          
H2179    H      0.762340000000     0.311760000000     0.107820000000     0          
Zr2180   Zr     0.729790000000     0.311960000000     0.220780000000     0          
O2181    O      0.671580000000     0.315400000000     0.194040000000     0          
O2182    O      0.645210000000     0.256530000000     0.197930000000     0          
O2183    O      0.580200000000     0.281950000000     0.161270000000     0          
O2184    O      0.724540000000     0.256780000000     0.195000000000     0          
O2185    O      0.740200000000     0.328500000000     0.160770000000     0          
C2186    C      0.645130000000     0.291210000000     0.189110000000     0          
O2187    O      0.778400000000     0.265900000000     0.135470000000     0          
C2188    C      0.573480000000     0.280190000000     0.121700000000     0          
C2189    C      0.582480000000     0.246400000000     0.102200000000     0          
C2190    C      0.555640000000     0.311600000000     0.103600000000     0          
C2191    C      0.551900000000     0.309300000000     0.063800000000     0          
H2192    H      0.541640000000     0.330460000000     0.050280000000     0          
C2193    C      0.608700000000     0.308690000000     0.172500000000     0          
H2194    H      0.615670000000     0.324270000000     0.150020000000     0          
H2195    H      0.597530000000     0.326080000000     0.191740000000     0          
C2196    C      0.594940000000     0.211020000000     0.124300000000     0          
H2197    H      0.615650000000     0.217890000000     0.142220000000     0          
H2198    H      0.604940000000     0.191690000000     0.106330000000     0          
C2199    C      0.576900000000     0.245900000000     0.062500000000     0          
H2200    H      0.583150000000     0.223500000000     0.048700000000     0          
C2201    C      0.223600000000     0.043300000000     0.437100000000     0          
H2202    H      0.224350000000     0.016380000000     0.439440000000     0          
C2203    C      0.198400000000     0.132900000000     0.239000000000     0          
H2204    H      0.188240000000     0.107820000000     0.237660000000     0          
Zr2205   Zr     0.188040000000     0.220780000000     0.270210000000     0          
O2206    O      0.184600000000     0.194040000000     0.328420000000     0          
O2207    O      0.243470000000     0.197930000000     0.354790000000     0          
O2208    O      0.218050000000     0.161270000000     0.419800000000     0          
O2209    O      0.243220000000     0.195000000000     0.275460000000     0          
O2210    O      0.171500000000     0.160770000000     0.259800000000     0          
C2211    C      0.208790000000     0.189110000000     0.354870000000     0          
O2212    O      0.234100000000     0.135470000000     0.221600000000     0          
C2213    C      0.219810000000     0.121700000000     0.426520000000     0          
C2214    C      0.253600000000     0.102200000000     0.417520000000     0          
C2215    C      0.188400000000     0.103600000000     0.444360000000     0          
C2216    C      0.190700000000     0.063800000000     0.448100000000     0          
H2217    H      0.169540000000     0.050280000000     0.458360000000     0          
C2218    C      0.191310000000     0.172500000000     0.391300000000     0          
H2219    H      0.175730000000     0.150020000000     0.384330000000     0          
H2220    H      0.173920000000     0.191740000000     0.402470000000     0          
C2221    C      0.288980000000     0.124300000000     0.405060000000     0          
H2222    H      0.282110000000     0.142220000000     0.384350000000     0          
H2223    H      0.308310000000     0.106330000000     0.395060000000     0          
C2224    C      0.254100000000     0.062500000000     0.423100000000     0          
H2225    H      0.276500000000     0.048700000000     0.416850000000     0          
C2226    C      0.723600000000     0.543300000000     0.937100000000     0          
H2227    H      0.724350000000     0.516380000000     0.939440000000     0          
C2228    C      0.698400000000     0.632900000000     0.739000000000     0          
H2229    H      0.688240000000     0.607820000000     0.737660000000     0          
Zr2230   Zr     0.688040000000     0.720780000000     0.770210000000     0          
O2231    O      0.684600000000     0.694040000000     0.828420000000     0          
O2232    O      0.743470000000     0.697930000000     0.854790000000     0          
O2233    O      0.718050000000     0.661270000000     0.919800000000     0          
O2234    O      0.743220000000     0.695000000000     0.775460000000     0          
O2235    O      0.671500000000     0.660770000000     0.759800000000     0          
C2236    C      0.708790000000     0.689110000000     0.854870000000     0          
O2237    O      0.734100000000     0.635470000000     0.721600000000     0          
C2238    C      0.719810000000     0.621700000000     0.926520000000     0          
C2239    C      0.753600000000     0.602200000000     0.917520000000     0          
C2240    C      0.688400000000     0.603600000000     0.944360000000     0          
C2241    C      0.690700000000     0.563800000000     0.948100000000     0          
H2242    H      0.669540000000     0.550280000000     0.958360000000     0          
C2243    C      0.691310000000     0.672500000000     0.891300000000     0          
H2244    H      0.675730000000     0.650020000000     0.884330000000     0          
H2245    H      0.673920000000     0.691740000000     0.902470000000     0          
C2246    C      0.788980000000     0.624300000000     0.905060000000     0          
H2247    H      0.782110000000     0.642220000000     0.884350000000     0          
H2248    H      0.808310000000     0.606330000000     0.895060000000     0          
C2249    C      0.754100000000     0.562500000000     0.923100000000     0          
H2250    H      0.776500000000     0.548700000000     0.916850000000     0          
C2251    C      0.723600000000     0.456700000000     0.562900000000     0          
H2252    H      0.724350000000     0.483620000000     0.560560000000     0          
C2253    C      0.698400000000     0.367100000000     0.761000000000     0          
H2254    H      0.688240000000     0.392180000000     0.762340000000     0          
Zr2255   Zr     0.688040000000     0.279220000000     0.729790000000     0          
O2256    O      0.684600000000     0.305960000000     0.671580000000     0          
O2257    O      0.743470000000     0.302070000000     0.645210000000     0          
O2258    O      0.718050000000     0.338730000000     0.580200000000     0          
O2259    O      0.743220000000     0.305000000000     0.724540000000     0          
O2260    O      0.671500000000     0.339230000000     0.740200000000     0          
C2261    C      0.708790000000     0.310890000000     0.645130000000     0          
O2262    O      0.734100000000     0.364530000000     0.778400000000     0          
C2263    C      0.719810000000     0.378300000000     0.573480000000     0          
C2264    C      0.753600000000     0.397800000000     0.582480000000     0          
C2265    C      0.688400000000     0.396400000000     0.555640000000     0          
C2266    C      0.690700000000     0.436200000000     0.551900000000     0          
H2267    H      0.669540000000     0.449720000000     0.541640000000     0          
C2268    C      0.691310000000     0.327500000000     0.608700000000     0          
H2269    H      0.675730000000     0.349980000000     0.615670000000     0          
H2270    H      0.673920000000     0.308260000000     0.597530000000     0          
C2271    C      0.788980000000     0.375700000000     0.594940000000     0          
H2272    H      0.782110000000     0.357780000000     0.615650000000     0          
H2273    H      0.808310000000     0.393670000000     0.604940000000     0          
C2274    C      0.754100000000     0.437500000000     0.576900000000     0          
H2275    H      0.776500000000     0.451300000000     0.583150000000     0          
C2276    C      0.223600000000     0.956700000000     0.062900000000     0          
H2277    H      0.224350000000     0.983620000000     0.060560000000     0          
C2278    C      0.198400000000     0.867100000000     0.261000000000     0          
H2279    H      0.188240000000     0.892180000000     0.262340000000     0          
Zr2280   Zr     0.188040000000     0.779220000000     0.229790000000     0          
O2281    O      0.184600000000     0.805960000000     0.171580000000     0          
O2282    O      0.243470000000     0.802070000000     0.145210000000     0          
O2283    O      0.218050000000     0.838730000000     0.080200000000     0          
O2284    O      0.243220000000     0.805000000000     0.224540000000     0          
O2285    O      0.171500000000     0.839230000000     0.240200000000     0          
C2286    C      0.208790000000     0.810890000000     0.145130000000     0          
O2287    O      0.234100000000     0.864530000000     0.278400000000     0          
C2288    C      0.219810000000     0.878300000000     0.073480000000     0          
C2289    C      0.253600000000     0.897800000000     0.082480000000     0          
C2290    C      0.188400000000     0.896400000000     0.055640000000     0          
C2291    C      0.190700000000     0.936200000000     0.051900000000     0          
H2292    H      0.169540000000     0.949720000000     0.041640000000     0          
C2293    C      0.191310000000     0.827500000000     0.108700000000     0          
H2294    H      0.175730000000     0.849980000000     0.115670000000     0          
H2295    H      0.173920000000     0.808260000000     0.097530000000     0          
C2296    C      0.288980000000     0.875700000000     0.094940000000     0          
H2297    H      0.282110000000     0.857780000000     0.115650000000     0          
H2298    H      0.308310000000     0.893670000000     0.104940000000     0          
C2299    C      0.254100000000     0.937500000000     0.076900000000     0          
H2300    H      0.276500000000     0.951300000000     0.083150000000     0          
C2301    C      0.776400000000     0.543300000000     0.062900000000     0          
H2302    H      0.775650000000     0.516380000000     0.060560000000     0          
C2303    C      0.801600000000     0.632900000000     0.261000000000     0          
H2304    H      0.811760000000     0.607820000000     0.262340000000     0          
Zr2305   Zr     0.811960000000     0.720780000000     0.229790000000     0          
O2306    O      0.815400000000     0.694040000000     0.171580000000     0          
O2307    O      0.756530000000     0.697930000000     0.145210000000     0          
O2308    O      0.781950000000     0.661270000000     0.080200000000     0          
O2309    O      0.756780000000     0.695000000000     0.224540000000     0          
O2310    O      0.828500000000     0.660770000000     0.240200000000     0          
C2311    C      0.791210000000     0.689110000000     0.145130000000     0          
O2312    O      0.765900000000     0.635470000000     0.278400000000     0          
C2313    C      0.780190000000     0.621700000000     0.073480000000     0          
C2314    C      0.746400000000     0.602200000000     0.082480000000     0          
C2315    C      0.811600000000     0.603600000000     0.055640000000     0          
C2316    C      0.809300000000     0.563800000000     0.051900000000     0          
H2317    H      0.830460000000     0.550280000000     0.041640000000     0          
C2318    C      0.808690000000     0.672500000000     0.108700000000     0          
H2319    H      0.824270000000     0.650020000000     0.115670000000     0          
H2320    H      0.826080000000     0.691740000000     0.097530000000     0          
C2321    C      0.711020000000     0.624300000000     0.094940000000     0          
H2322    H      0.717890000000     0.642220000000     0.115650000000     0          
H2323    H      0.691690000000     0.606330000000     0.104940000000     0          
C2324    C      0.745900000000     0.562500000000     0.076900000000     0          
H2325    H      0.723500000000     0.548700000000     0.083150000000     0          
C2326    C      0.276400000000     0.043300000000     0.562900000000     0          
H2327    H      0.275650000000     0.016380000000     0.560560000000     0          
C2328    C      0.301600000000     0.132900000000     0.761000000000     0          
H2329    H      0.311760000000     0.107820000000     0.762340000000     0          
Zr2330   Zr     0.311960000000     0.220780000000     0.729790000000     0          
O2331    O      0.315400000000     0.194040000000     0.671580000000     0          
O2332    O      0.256530000000     0.197930000000     0.645210000000     0          
O2333    O      0.281950000000     0.161270000000     0.580200000000     0          
O2334    O      0.256780000000     0.195000000000     0.724540000000     0          
O2335    O      0.328500000000     0.160770000000     0.740200000000     0          
C2336    C      0.291210000000     0.189110000000     0.645130000000     0          
O2337    O      0.265900000000     0.135470000000     0.778400000000     0          
C2338    C      0.280190000000     0.121700000000     0.573480000000     0          
C2339    C      0.246400000000     0.102200000000     0.582480000000     0          
C2340    C      0.311600000000     0.103600000000     0.555640000000     0          
C2341    C      0.309300000000     0.063800000000     0.551900000000     0          
H2342    H      0.330460000000     0.050280000000     0.541640000000     0          
C2343    C      0.308690000000     0.172500000000     0.608700000000     0          
H2344    H      0.324270000000     0.150020000000     0.615670000000     0          
H2345    H      0.326080000000     0.191740000000     0.597530000000     0          
C2346    C      0.211020000000     0.124300000000     0.594940000000     0          
H2347    H      0.217890000000     0.142220000000     0.615650000000     0          
H2348    H      0.191690000000     0.106330000000     0.604940000000     0          
C2349    C      0.245900000000     0.062500000000     0.576900000000     0          
H2350    H      0.223500000000     0.048700000000     0.583150000000     0          
C2351    C      0.276400000000     0.956700000000     0.937100000000     0          
H2352    H      0.275650000000     0.983620000000     0.939440000000     0          
C2353    C      0.301600000000     0.867100000000     0.739000000000     0          
H2354    H      0.311760000000     0.892180000000     0.737660000000     0          
Zr2355   Zr     0.311960000000     0.779220000000     0.770210000000     0          
O2356    O      0.315400000000     0.805960000000     0.828420000000     0          
O2357    O      0.256530000000     0.802070000000     0.854790000000     0          
O2358    O      0.281950000000     0.838730000000     0.919800000000     0          
O2359    O      0.256780000000     0.805000000000     0.775460000000     0          
O2360    O      0.328500000000     0.839230000000     0.759800000000     0          
C2361    C      0.291210000000     0.810890000000     0.854870000000     0          
O2362    O      0.265900000000     0.864530000000     0.721600000000     0          
C2363    C      0.280190000000     0.878300000000     0.926520000000     0          
C2364    C      0.246400000000     0.897800000000     0.917520000000     0          
C2365    C      0.311600000000     0.896400000000     0.944360000000     0          
C2366    C      0.309300000000     0.936200000000     0.948100000000     0          
H2367    H      0.330460000000     0.949720000000     0.958360000000     0          
C2368    C      0.308690000000     0.827500000000     0.891300000000     0          
H2369    H      0.324270000000     0.849980000000     0.884330000000     0          
H2370    H      0.326080000000     0.808260000000     0.902470000000     0          
C2371    C      0.211020000000     0.875700000000     0.905060000000     0          
H2372    H      0.217890000000     0.857780000000     0.884350000000     0          
H2373    H      0.191690000000     0.893670000000     0.895060000000     0          
C2374    C      0.245900000000     0.937500000000     0.923100000000     0          
H2375    H      0.223500000000     0.951300000000     0.916850000000     0          
C2376    C      0.776400000000     0.456700000000     0.437100000000     0          
H2377    H      0.775650000000     0.483620000000     0.439440000000     0          
C2378    C      0.801600000000     0.367100000000     0.239000000000     0          
H2379    H      0.811760000000     0.392180000000     0.237660000000     0          
Zr2380   Zr     0.811960000000     0.279220000000     0.270210000000     0          
O2381    O      0.815400000000     0.305960000000     0.328420000000     0          
O2382    O      0.756530000000     0.302070000000     0.354790000000     0          
O2383    O      0.781950000000     0.338730000000     0.419800000000     0          
O2384    O      0.756780000000     0.305000000000     0.275460000000     0          
O2385    O      0.828500000000     0.339230000000     0.259800000000     0          
C2386    C      0.791210000000     0.310890000000     0.354870000000     0          
O2387    O      0.765900000000     0.364530000000     0.221600000000     0          
C2388    C      0.780190000000     0.378300000000     0.426520000000     0          
C2389    C      0.746400000000     0.397800000000     0.417520000000     0          
C2390    C      0.811600000000     0.396400000000     0.444360000000     0          
C2391    C      0.809300000000     0.436200000000     0.448100000000     0          
H2392    H      0.830460000000     0.449720000000     0.458360000000     0          
C2393    C      0.808690000000     0.327500000000     0.391300000000     0          
H2394    H      0.824270000000     0.349980000000     0.384330000000     0          
H2395    H      0.826080000000     0.308260000000     0.402470000000     0          
C2396    C      0.711020000000     0.375700000000     0.405060000000     0          
H2397    H      0.717890000000     0.357780000000     0.384350000000     0          
H2398    H      0.691690000000     0.393670000000     0.395060000000     0          
C2399    C      0.745900000000     0.437500000000     0.423100000000     0          
H2400    H      0.723500000000     0.451300000000     0.416850000000     0          
O2401    O      0.463600000000     0.536400000000     0.036400000000     0          
O2402    O      0.963600000000     0.036400000000     0.536400000000     0          
O2403    O      0.036400000000     0.463600000000     0.536400000000     0          
O2404    O      0.536400000000     0.963600000000     0.036400000000     0          
O2405    O      0.536400000000     0.036400000000     0.463600000000     0          
O2406    O      0.036400000000     0.536400000000     0.963600000000     0          
O2407    O      0.963600000000     0.963600000000     0.963600000000     0          
O2408    O      0.463600000000     0.463600000000     0.463600000000     0          
O2409    O      0.286400000000     0.713600000000     0.213600000000     0          
O2410    O      0.786400000000     0.213600000000     0.713600000000     0          
O2411    O      0.213600000000     0.286400000000     0.713600000000     0          
O2412    O      0.713600000000     0.786400000000     0.213600000000     0          
O2413    O      0.786400000000     0.786400000000     0.786400000000     0          
O2414    O      0.286400000000     0.286400000000     0.286400000000     0          
O2415    O      0.713600000000     0.213600000000     0.286400000000     0          
O2416    O      0.213600000000     0.713600000000     0.786400000000     0          
O2417    O      0.536400000000     0.463600000000     0.963600000000     0          
O2418    O      0.036400000000     0.963600000000     0.463600000000     0          
O2419    O      0.963600000000     0.536400000000     0.463600000000     0          
O2420    O      0.463600000000     0.036400000000     0.963600000000     0          
O2421    O      0.463600000000     0.963600000000     0.536400000000     0          
O2422    O      0.963600000000     0.463600000000     0.036400000000     0          
O2423    O      0.036400000000     0.036400000000     0.036400000000     0          
O2424    O      0.536400000000     0.536400000000     0.536400000000     0          
O2425    O      0.713600000000     0.286400000000     0.786400000000     0          
O2426    O      0.213600000000     0.786400000000     0.286400000000     0          
O2427    O      0.786400000000     0.713600000000     0.286400000000     0          
O2428    O      0.286400000000     0.213600000000     0.786400000000     0          
O2429    O      0.213600000000     0.213600000000     0.213600000000     0          
O2430    O      0.713600000000     0.713600000000     0.713600000000     0          
O2431    O      0.286400000000     0.786400000000     0.713600000000     0          
O2432    O      0.786400000000     0.286400000000     0.213600000000     0          


