data_UFORUF

_audit_creation_method RASPA-1.0
_audit_creation_date 2020-11-2
_audit_author_name 'Rocio Bueno-Perez'

_cell_length_a    38.764
_cell_length_b    38.764
_cell_length_c    38.764
_cell_angle_alpha 90
_cell_angle_beta  90
_cell_angle_gamma 90
_cell_volume      58248.6

_symmetry_cell_setting          triclinic
_symmetry_space_group_name_Hall 'P 1'
_symmetry_space_group_name_H-M  'P 1'
_symmetry_Int_Tables_number     1

_symmetry_equiv_pos_as_xyz 'x,y,z'

loop_
_atom_site_label
_atom_site_type_symbol
_atom_site_fract_x
_atom_site_fract_y
_atom_site_fract_z
_atom_site_charge
C1       C      0.340900000000     0.804600000000     0.630800000000     0          
H2       H      0.325480000000     0.827120000000     0.619850000000     0          
C3       C      0.323900000000     0.777000000000     0.646100000000     0          
H4       H      0.294510000000     0.776030000000     0.646140000000     0          
C5       C      0.379200000000     0.748000000000     0.657800000000     0          
H6       H      0.397260000000     0.725960000000     0.665060000000     0          
C7       C      0.392600000000     0.778400000000     0.643500000000     0          
H8       H      0.421650000000     0.782950000000     0.643200000000     0          
C9       C      0.659100000000     0.804600000000     0.369200000000     0          
H10      H      0.674520000000     0.827120000000     0.380150000000     0          
C11      C      0.676100000000     0.777000000000     0.353900000000     0          
H12      H      0.705490000000     0.776030000000     0.353860000000     0          
C13      C      0.620800000000     0.748000000000     0.342200000000     0          
H14      H      0.602740000000     0.725960000000     0.334940000000     0          
C15      C      0.607400000000     0.778400000000     0.356500000000     0          
H16      H      0.578350000000     0.782950000000     0.356800000000     0          
C17      C      0.630800000000     0.659100000000     0.195400000000     0          
H18      H      0.619850000000     0.674520000000     0.172880000000     0          
C19      C      0.646100000000     0.676100000000     0.223000000000     0          
H20      H      0.646140000000     0.705490000000     0.223970000000     0          
C21      C      0.657800000000     0.620800000000     0.252000000000     0          
H22      H      0.665060000000     0.602740000000     0.274040000000     0          
C23      C      0.643500000000     0.607400000000     0.221600000000     0          
H24      H      0.643200000000     0.578350000000     0.217050000000     0          
C25      C      0.369200000000     0.659100000000     0.804600000000     0          
H26      H      0.380150000000     0.674520000000     0.827120000000     0          
C27      C      0.353900000000     0.676100000000     0.777000000000     0          
H28      H      0.353860000000     0.705490000000     0.776030000000     0          
C29      C      0.342200000000     0.620800000000     0.748000000000     0          
H30      H      0.334940000000     0.602740000000     0.725960000000     0          
C31      C      0.356500000000     0.607400000000     0.778400000000     0          
H32      H      0.356800000000     0.578350000000     0.782950000000     0          
C33      C      0.195400000000     0.630800000000     0.659100000000     0          
H34      H      0.172880000000     0.619850000000     0.674520000000     0          
C35      C      0.223000000000     0.646100000000     0.676100000000     0          
H36      H      0.223970000000     0.646140000000     0.705490000000     0          
C37      C      0.252000000000     0.657800000000     0.620800000000     0          
H38      H      0.274040000000     0.665060000000     0.602740000000     0          
C39      C      0.221600000000     0.643500000000     0.607400000000     0          
H40      H      0.217050000000     0.643200000000     0.578350000000     0          
C41      C      0.195400000000     0.369200000000     0.340900000000     0          
H42      H      0.176380000000     0.374040000000     0.318990000000     0          
C43      C      0.252000000000     0.342200000000     0.379200000000     0          
H44      H      0.271220000000     0.324500000000     0.392700000000     0          
C45      C      0.804600000000     0.340900000000     0.369200000000     0          
H46      H      0.827120000000     0.325480000000     0.380150000000     0          
C47      C      0.777000000000     0.323900000000     0.353900000000     0          
H48      H      0.776030000000     0.294510000000     0.353860000000     0          
C49      C      0.748000000000     0.379200000000     0.342200000000     0          
H50      H      0.725960000000     0.397260000000     0.334940000000     0          
C51      C      0.778400000000     0.392600000000     0.356500000000     0          
H52      H      0.782950000000     0.421650000000     0.356800000000     0          
C53      C      0.195400000000     0.340900000000     0.630800000000     0          
H54      H      0.172880000000     0.325480000000     0.619850000000     0          
C55      C      0.223000000000     0.323900000000     0.646100000000     0          
H56      H      0.223970000000     0.294510000000     0.646140000000     0          
C57      C      0.252000000000     0.379200000000     0.657800000000     0          
H58      H      0.274040000000     0.397260000000     0.665060000000     0          
C59      C      0.221600000000     0.392600000000     0.643500000000     0          
H60      H      0.217050000000     0.421650000000     0.643200000000     0          
C61      C      0.804600000000     0.659100000000     0.630800000000     0          
H62      H      0.827120000000     0.674520000000     0.619850000000     0          
C63      C      0.777000000000     0.676100000000     0.646100000000     0          
H64      H      0.776030000000     0.705490000000     0.646140000000     0          
C65      C      0.748000000000     0.620800000000     0.657800000000     0          
H66      H      0.725960000000     0.602740000000     0.665060000000     0          
C67      C      0.778400000000     0.607400000000     0.643500000000     0          
H68      H      0.782950000000     0.578350000000     0.643200000000     0          
C69      C      0.340900000000     0.369200000000     0.804600000000     0          
H70      H      0.325480000000     0.380150000000     0.827120000000     0          
C71      C      0.323900000000     0.353900000000     0.777000000000     0          
H72      H      0.294510000000     0.353860000000     0.776030000000     0          
C73      C      0.379200000000     0.342200000000     0.748000000000     0          
H74      H      0.397260000000     0.334940000000     0.725960000000     0          
C75      C      0.392600000000     0.356500000000     0.778400000000     0          
H76      H      0.421650000000     0.356800000000     0.782950000000     0          
C77      C      0.659100000000     0.369200000000     0.195400000000     0          
H78      H      0.674520000000     0.380150000000     0.172880000000     0          
C79      C      0.676100000000     0.353900000000     0.223000000000     0          
H80      H      0.705490000000     0.353860000000     0.223970000000     0          
C81      C      0.620800000000     0.342200000000     0.252000000000     0          
H82      H      0.602740000000     0.334940000000     0.274040000000     0          
C83      C      0.607400000000     0.356500000000     0.221600000000     0          
H84      H      0.578350000000     0.356800000000     0.217050000000     0          
C85      C      0.630800000000     0.195400000000     0.340900000000     0          
H86      H      0.619850000000     0.172880000000     0.325480000000     0          
C87      C      0.646100000000     0.223000000000     0.323900000000     0          
H88      H      0.646140000000     0.223970000000     0.294510000000     0          
C89      C      0.657800000000     0.252000000000     0.379200000000     0          
H90      H      0.665060000000     0.274040000000     0.397260000000     0          
C91      C      0.643500000000     0.221600000000     0.392600000000     0          
H92      H      0.643200000000     0.217050000000     0.421650000000     0          
C93      C      0.369200000000     0.195400000000     0.659100000000     0          
H94      H      0.380150000000     0.172880000000     0.674520000000     0          
C95      C      0.353900000000     0.223000000000     0.676100000000     0          
H96      H      0.353860000000     0.223970000000     0.705490000000     0          
C97      C      0.342200000000     0.252000000000     0.620800000000     0          
H98      H      0.334940000000     0.274040000000     0.602740000000     0          
C99      C      0.356500000000     0.221600000000     0.607400000000     0          
H100     H      0.356800000000     0.217050000000     0.578350000000     0          
C101     C      0.369200000000     0.804600000000     0.340900000000     0          
H102     H      0.380150000000     0.827120000000     0.325480000000     0          
C103     C      0.353900000000     0.777000000000     0.323900000000     0          
H104     H      0.353860000000     0.776030000000     0.294510000000     0          
C105     C      0.342200000000     0.748000000000     0.379200000000     0          
H106     H      0.334940000000     0.725960000000     0.397260000000     0          
C107     C      0.356500000000     0.778400000000     0.392600000000     0          
H108     H      0.356800000000     0.782950000000     0.421650000000     0          
C109     C      0.659100000000     0.804600000000     0.630800000000     0          
H110     H      0.674520000000     0.827120000000     0.619850000000     0          
C111     C      0.676100000000     0.777000000000     0.646100000000     0          
H112     H      0.705490000000     0.776030000000     0.646140000000     0          
C113     C      0.620800000000     0.748000000000     0.657800000000     0          
H114     H      0.602740000000     0.725960000000     0.665060000000     0          
C115     C      0.607400000000     0.778400000000     0.643500000000     0          
H116     H      0.578350000000     0.782950000000     0.643200000000     0          
C117     C      0.369200000000     0.659100000000     0.195400000000     0          
H118     H      0.380150000000     0.674520000000     0.172880000000     0          
C119     C      0.353900000000     0.676100000000     0.223000000000     0          
H120     H      0.353860000000     0.705490000000     0.223970000000     0          
C121     C      0.342200000000     0.620800000000     0.252000000000     0          
H122     H      0.334940000000     0.602740000000     0.274040000000     0          
C123     C      0.356500000000     0.607400000000     0.221600000000     0          
H124     H      0.356800000000     0.578350000000     0.217050000000     0          
C125     C      0.630800000000     0.659100000000     0.804600000000     0          
H126     H      0.619850000000     0.674520000000     0.827120000000     0          
C127     C      0.646100000000     0.676100000000     0.777000000000     0          
H128     H      0.646140000000     0.705490000000     0.776030000000     0          
C129     C      0.657800000000     0.620800000000     0.748000000000     0          
H130     H      0.665060000000     0.602740000000     0.725960000000     0          
C131     C      0.643500000000     0.607400000000     0.778400000000     0          
H132     H      0.643200000000     0.578350000000     0.782950000000     0          
C133     C      0.195400000000     0.630800000000     0.340900000000     0          
H134     H      0.172880000000     0.619850000000     0.325480000000     0          
C135     C      0.223000000000     0.646100000000     0.323900000000     0          
H136     H      0.223970000000     0.646140000000     0.294510000000     0          
C137     C      0.252000000000     0.657800000000     0.379200000000     0          
H138     H      0.274040000000     0.665060000000     0.397260000000     0          
C139     C      0.221600000000     0.643500000000     0.392600000000     0          
H140     H      0.217050000000     0.643200000000     0.421650000000     0          
C141     C      0.804600000000     0.340900000000     0.630800000000     0          
H142     H      0.827120000000     0.325480000000     0.619850000000     0          
C143     C      0.777000000000     0.323900000000     0.646100000000     0          
H144     H      0.776030000000     0.294510000000     0.646140000000     0          
C145     C      0.748000000000     0.379200000000     0.657800000000     0          
H146     H      0.725960000000     0.397260000000     0.665060000000     0          
C147     C      0.778400000000     0.392600000000     0.643500000000     0          
H148     H      0.782950000000     0.421650000000     0.643200000000     0          
C149     C      0.804600000000     0.659100000000     0.369200000000     0          
H150     H      0.827120000000     0.674520000000     0.380150000000     0          
C151     C      0.777000000000     0.676100000000     0.353900000000     0          
H152     H      0.776030000000     0.705490000000     0.353860000000     0          
C153     C      0.748000000000     0.620800000000     0.342200000000     0          
H154     H      0.725960000000     0.602740000000     0.334940000000     0          
C155     C      0.778400000000     0.607400000000     0.356500000000     0          
H156     H      0.782950000000     0.578350000000     0.356800000000     0          
C157     C      0.195400000000     0.340900000000     0.369200000000     0          
H158     H      0.170610000000     0.325190000000     0.371110000000     0          
C159     C      0.223000000000     0.323900000000     0.353900000000     0          
H160     H      0.222170000000     0.294510000000     0.353210000000     0          
C161     C      0.252000000000     0.379200000000     0.342200000000     0          
H162     H      0.274780000000     0.385920000000     0.359550000000     0          
C163     C      0.221600000000     0.392600000000     0.356500000000     0          
H164     H      0.217120000000     0.421370000000     0.352350000000     0          
C165     C      0.340900000000     0.369200000000     0.195400000000     0          
H166     H      0.325480000000     0.380150000000     0.172880000000     0          
C167     C      0.323900000000     0.353900000000     0.223000000000     0          
H168     H      0.294510000000     0.353860000000     0.223970000000     0          
C169     C      0.379200000000     0.342200000000     0.252000000000     0          
H170     H      0.397260000000     0.334940000000     0.274040000000     0          
C171     C      0.392600000000     0.356500000000     0.221600000000     0          
H172     H      0.421650000000     0.356800000000     0.217050000000     0          
C173     C      0.659100000000     0.369200000000     0.804600000000     0          
H174     H      0.674520000000     0.380150000000     0.827120000000     0          
C175     C      0.676100000000     0.353900000000     0.777000000000     0          
H176     H      0.705490000000     0.353860000000     0.776030000000     0          
C177     C      0.620800000000     0.342200000000     0.748000000000     0          
H178     H      0.602740000000     0.334940000000     0.725960000000     0          
C179     C      0.607400000000     0.356500000000     0.778400000000     0          
H180     H      0.578350000000     0.356800000000     0.782950000000     0          
C181     C      0.369200000000     0.195400000000     0.340900000000     0          
H182     H      0.380150000000     0.172880000000     0.325480000000     0          
C183     C      0.353900000000     0.223000000000     0.323900000000     0          
H184     H      0.353860000000     0.223970000000     0.294510000000     0          
C185     C      0.342200000000     0.252000000000     0.379200000000     0          
H186     H      0.334940000000     0.274040000000     0.397260000000     0          
C187     C      0.356500000000     0.221600000000     0.392600000000     0          
H188     H      0.356800000000     0.217050000000     0.421650000000     0          
C189     C      0.630800000000     0.195400000000     0.659100000000     0          
H190     H      0.619850000000     0.172880000000     0.674520000000     0          
C191     C      0.646100000000     0.223000000000     0.676100000000     0          
H192     H      0.646140000000     0.223970000000     0.705490000000     0          
C193     C      0.657800000000     0.252000000000     0.620800000000     0          
H194     H      0.665060000000     0.274040000000     0.602740000000     0          
C195     C      0.643500000000     0.221600000000     0.607400000000     0          
H196     H      0.643200000000     0.217050000000     0.578350000000     0          
Zr197    Zr     0.500000000000     0.062620000000     0.500000000000     0          
Zr198    Zr     0.500000000000     0.937380000000     0.500000000000     0          
Zr199    Zr     0.500000000000     0.500000000000     0.062620000000     0          
Zr200    Zr     0.500000000000     0.500000000000     0.937380000000     0          
Zr201    Zr     0.062620000000     0.500000000000     0.500000000000     0          
Zr202    Zr     0.937380000000     0.500000000000     0.500000000000     0          
O203     O      0.535600000000     0.090700000000     0.535600000000     0          
O204     O      0.563500000000     0.054400000000     0.563500000000     0          
C205     C      0.576600000000     0.110600000000     0.576600000000     0          
C206     C      0.558000000000     0.086600000000     0.558000000000     0          
C207     C      0.608800000000     0.165900000000     0.608800000000     0          
C208     C      0.598200000000     0.102900000000     0.598200000000     0          
H209     H      0.603880000000     0.074610000000     0.603880000000     0          
C210     C      0.582500000000     0.172000000000     0.582500000000     0          
H211     H      0.575150000000     0.199510000000     0.575150000000     0          
C212     C      0.567000000000     0.142300000000     0.567000000000     0          
H213     H      0.546350000000     0.145790000000     0.546350000000     0          
C214     C      0.614700000000     0.131800000000     0.614700000000     0          
H215     H      0.634660000000     0.123570000000     0.634660000000     0          
C216     C      0.627200000000     0.191700000000     0.627200000000     0          
C217     C      0.661000000000     0.248900000000     0.661000000000     0          
C218     C      0.675900000000     0.278000000000     0.675900000000     0          
O219     O      0.464400000000     0.909300000000     0.535600000000     0          
O220     O      0.436500000000     0.945600000000     0.563500000000     0          
C221     C      0.423400000000     0.889400000000     0.576600000000     0          
C222     C      0.442000000000     0.913400000000     0.558000000000     0          
C223     C      0.391200000000     0.834100000000     0.608800000000     0          
C224     C      0.401800000000     0.897100000000     0.598200000000     0          
H225     H      0.396120000000     0.925390000000     0.603880000000     0          
C226     C      0.417500000000     0.828000000000     0.582500000000     0          
H227     H      0.424850000000     0.800490000000     0.575150000000     0          
C228     C      0.433000000000     0.857700000000     0.567000000000     0          
H229     H      0.453650000000     0.854210000000     0.546350000000     0          
C230     C      0.385300000000     0.868200000000     0.614700000000     0          
H231     H      0.364760000000     0.872760000000     0.635240000000     0          
C232     C      0.372800000000     0.808300000000     0.627200000000     0          
C233     C      0.339000000000     0.751100000000     0.661000000000     0          
C234     C      0.324100000000     0.722000000000     0.675900000000     0          
O235     O      0.464400000000     0.090700000000     0.464400000000     0          
O236     O      0.436500000000     0.054400000000     0.436500000000     0          
C237     C      0.423400000000     0.110600000000     0.423400000000     0          
C238     C      0.442000000000     0.086600000000     0.442000000000     0          
C239     C      0.391200000000     0.165900000000     0.391200000000     0          
C240     C      0.401800000000     0.102900000000     0.401800000000     0          
H241     H      0.396120000000     0.074610000000     0.396120000000     0          
C242     C      0.417500000000     0.172000000000     0.417500000000     0          
H243     H      0.424850000000     0.199510000000     0.424850000000     0          
C244     C      0.433000000000     0.142300000000     0.433000000000     0          
H245     H      0.453650000000     0.145790000000     0.453650000000     0          
C246     C      0.385300000000     0.131800000000     0.385300000000     0          
H247     H      0.365340000000     0.123570000000     0.365340000000     0          
C248     C      0.372800000000     0.191700000000     0.372800000000     0          
C249     C      0.339000000000     0.248900000000     0.339000000000     0          
C250     C      0.324100000000     0.278000000000     0.324100000000     0          
O251     O      0.535600000000     0.909300000000     0.464400000000     0          
O252     O      0.563500000000     0.945600000000     0.436500000000     0          
C253     C      0.576600000000     0.889400000000     0.423400000000     0          
C254     C      0.558000000000     0.913400000000     0.442000000000     0          
C255     C      0.608800000000     0.834100000000     0.391200000000     0          
C256     C      0.598200000000     0.897100000000     0.401800000000     0          
H257     H      0.603880000000     0.925390000000     0.396120000000     0          
C258     C      0.582500000000     0.828000000000     0.417500000000     0          
H259     H      0.575150000000     0.800490000000     0.424850000000     0          
C260     C      0.567000000000     0.857700000000     0.433000000000     0          
H261     H      0.546350000000     0.854210000000     0.453650000000     0          
C262     C      0.614700000000     0.868200000000     0.385300000000     0          
H263     H      0.635240000000     0.872760000000     0.364760000000     0          
C264     C      0.627200000000     0.808300000000     0.372800000000     0          
C265     C      0.661000000000     0.751100000000     0.339000000000     0          
C266     C      0.675900000000     0.722000000000     0.324100000000     0          
O267     O      0.535600000000     0.535600000000     0.090700000000     0          
O268     O      0.563500000000     0.563500000000     0.054400000000     0          
C269     C      0.576600000000     0.576600000000     0.110600000000     0          
C270     C      0.558000000000     0.558000000000     0.086600000000     0          
C271     C      0.608800000000     0.608800000000     0.165900000000     0          
C272     C      0.598200000000     0.598200000000     0.102900000000     0          
H273     H      0.603880000000     0.603880000000     0.074610000000     0          
C274     C      0.582500000000     0.582500000000     0.172000000000     0          
H275     H      0.575150000000     0.575150000000     0.199510000000     0          
C276     C      0.567000000000     0.567000000000     0.142300000000     0          
H277     H      0.546350000000     0.546350000000     0.145790000000     0          
C278     C      0.614700000000     0.614700000000     0.131800000000     0          
H279     H      0.634660000000     0.634660000000     0.123570000000     0          
C280     C      0.627200000000     0.627200000000     0.191700000000     0          
C281     C      0.661000000000     0.661000000000     0.248900000000     0          
C282     C      0.675900000000     0.675900000000     0.278000000000     0          
O283     O      0.535600000000     0.464400000000     0.909300000000     0          
O284     O      0.563500000000     0.436500000000     0.945600000000     0          
C285     C      0.576600000000     0.423400000000     0.889400000000     0          
C286     C      0.558000000000     0.442000000000     0.913400000000     0          
C287     C      0.608800000000     0.391200000000     0.834100000000     0          
C288     C      0.598200000000     0.401800000000     0.897100000000     0          
H289     H      0.603880000000     0.396120000000     0.925390000000     0          
C290     C      0.582500000000     0.417500000000     0.828000000000     0          
H291     H      0.575150000000     0.424850000000     0.800490000000     0          
C292     C      0.567000000000     0.433000000000     0.857700000000     0          
H293     H      0.546350000000     0.453650000000     0.854210000000     0          
C294     C      0.614700000000     0.385300000000     0.868200000000     0          
H295     H      0.635240000000     0.364760000000     0.872760000000     0          
C296     C      0.627200000000     0.372800000000     0.808300000000     0          
C297     C      0.661000000000     0.339000000000     0.751100000000     0          
C298     C      0.675900000000     0.324100000000     0.722000000000     0          
O299     O      0.464400000000     0.464400000000     0.090700000000     0          
O300     O      0.436500000000     0.436500000000     0.054400000000     0          
C301     C      0.423400000000     0.423400000000     0.110600000000     0          
C302     C      0.442000000000     0.442000000000     0.086600000000     0          
C303     C      0.391200000000     0.391200000000     0.165900000000     0          
C304     C      0.401800000000     0.401800000000     0.102900000000     0          
H305     H      0.396120000000     0.396120000000     0.074610000000     0          
C306     C      0.417500000000     0.417500000000     0.172000000000     0          
H307     H      0.424850000000     0.424850000000     0.199510000000     0          
C308     C      0.433000000000     0.433000000000     0.142300000000     0          
H309     H      0.453650000000     0.453650000000     0.145790000000     0          
C310     C      0.385300000000     0.385300000000     0.131800000000     0          
H311     H      0.365340000000     0.365340000000     0.123570000000     0          
C312     C      0.372800000000     0.372800000000     0.191700000000     0          
C313     C      0.339000000000     0.339000000000     0.248900000000     0          
C314     C      0.324100000000     0.324100000000     0.278000000000     0          
O315     O      0.464400000000     0.535600000000     0.909300000000     0          
O316     O      0.436500000000     0.563500000000     0.945600000000     0          
C317     C      0.423400000000     0.576600000000     0.889400000000     0          
C318     C      0.442000000000     0.558000000000     0.913400000000     0          
C319     C      0.391200000000     0.608800000000     0.834100000000     0          
C320     C      0.401800000000     0.598200000000     0.897100000000     0          
H321     H      0.396120000000     0.603880000000     0.925390000000     0          
C322     C      0.417500000000     0.582500000000     0.828000000000     0          
H323     H      0.424850000000     0.575150000000     0.800490000000     0          
C324     C      0.433000000000     0.567000000000     0.857700000000     0          
H325     H      0.453650000000     0.546350000000     0.854210000000     0          
C326     C      0.385300000000     0.614700000000     0.868200000000     0          
H327     H      0.364760000000     0.635240000000     0.872760000000     0          
C328     C      0.372800000000     0.627200000000     0.808300000000     0          
C329     C      0.339000000000     0.661000000000     0.751100000000     0          
C330     C      0.324100000000     0.675900000000     0.722000000000     0          
O331     O      0.090700000000     0.535600000000     0.535600000000     0          
O332     O      0.054400000000     0.563500000000     0.563500000000     0          
C333     C      0.110600000000     0.576600000000     0.576600000000     0          
C334     C      0.086600000000     0.558000000000     0.558000000000     0          
C335     C      0.165900000000     0.608800000000     0.608800000000     0          
C336     C      0.102900000000     0.598200000000     0.598200000000     0          
H337     H      0.074610000000     0.603880000000     0.603880000000     0          
C338     C      0.172000000000     0.582500000000     0.582500000000     0          
H339     H      0.199510000000     0.575150000000     0.575150000000     0          
C340     C      0.142300000000     0.567000000000     0.567000000000     0          
H341     H      0.145790000000     0.546350000000     0.546350000000     0          
C342     C      0.131800000000     0.614700000000     0.614700000000     0          
H343     H      0.123570000000     0.634660000000     0.634660000000     0          
C344     C      0.191700000000     0.627200000000     0.627200000000     0          
C345     C      0.248900000000     0.661000000000     0.661000000000     0          
C346     C      0.278000000000     0.675900000000     0.675900000000     0          
O347     O      0.909300000000     0.535600000000     0.464400000000     0          
O348     O      0.945600000000     0.563500000000     0.436500000000     0          
C349     C      0.889400000000     0.576600000000     0.423400000000     0          
C350     C      0.913400000000     0.558000000000     0.442000000000     0          
C351     C      0.834100000000     0.608800000000     0.391200000000     0          
C352     C      0.897100000000     0.598200000000     0.401800000000     0          
H353     H      0.925390000000     0.603880000000     0.396120000000     0          
C354     C      0.828000000000     0.582500000000     0.417500000000     0          
H355     H      0.800490000000     0.575150000000     0.424850000000     0          
C356     C      0.857700000000     0.567000000000     0.433000000000     0          
H357     H      0.854210000000     0.546350000000     0.453650000000     0          
C358     C      0.868200000000     0.614700000000     0.385300000000     0          
H359     H      0.872760000000     0.635240000000     0.364760000000     0          
C360     C      0.808300000000     0.627200000000     0.372800000000     0          
C361     C      0.751100000000     0.661000000000     0.339000000000     0          
C362     C      0.722000000000     0.675900000000     0.324100000000     0          
O363     O      0.090700000000     0.464400000000     0.464400000000     0          
O364     O      0.054400000000     0.436500000000     0.436500000000     0          
C365     C      0.110600000000     0.423400000000     0.423400000000     0          
C366     C      0.086600000000     0.442000000000     0.442000000000     0          
C367     C      0.165900000000     0.391200000000     0.391200000000     0          
C368     C      0.102900000000     0.401800000000     0.401800000000     0          
H369     H      0.074610000000     0.396120000000     0.396120000000     0          
C370     C      0.172000000000     0.417500000000     0.417500000000     0          
H371     H      0.199510000000     0.424850000000     0.424850000000     0          
C372     C      0.142300000000     0.433000000000     0.433000000000     0          
H373     H      0.145790000000     0.453650000000     0.453650000000     0          
C374     C      0.131800000000     0.385300000000     0.385300000000     0          
H375     H      0.123570000000     0.365340000000     0.365340000000     0          
C376     C      0.191700000000     0.372800000000     0.372800000000     0          
C377     C      0.248900000000     0.339000000000     0.339000000000     0          
C378     C      0.278000000000     0.324100000000     0.324100000000     0          
O379     O      0.909300000000     0.464400000000     0.535600000000     0          
O380     O      0.945600000000     0.436500000000     0.563500000000     0          
C381     C      0.889400000000     0.423400000000     0.576600000000     0          
C382     C      0.913400000000     0.442000000000     0.558000000000     0          
C383     C      0.834100000000     0.391200000000     0.608800000000     0          
C384     C      0.897100000000     0.401800000000     0.598200000000     0          
H385     H      0.925390000000     0.396120000000     0.603880000000     0          
C386     C      0.828000000000     0.417500000000     0.582500000000     0          
H387     H      0.800490000000     0.424850000000     0.575150000000     0          
C388     C      0.857700000000     0.433000000000     0.567000000000     0          
H389     H      0.854210000000     0.453650000000     0.546350000000     0          
C390     C      0.868200000000     0.385300000000     0.614700000000     0          
H391     H      0.872760000000     0.364760000000     0.635240000000     0          
C392     C      0.808300000000     0.372800000000     0.627200000000     0          
C393     C      0.751100000000     0.339000000000     0.661000000000     0          
C394     C      0.722000000000     0.324100000000     0.675900000000     0          
O395     O      0.090700000000     0.535600000000     0.464400000000     0          
O396     O      0.054400000000     0.563500000000     0.436500000000     0          
C397     C      0.110600000000     0.576600000000     0.423400000000     0          
C398     C      0.086600000000     0.558000000000     0.442000000000     0          
C399     C      0.165900000000     0.608800000000     0.391200000000     0          
C400     C      0.102900000000     0.598200000000     0.401800000000     0          
H401     H      0.074610000000     0.603880000000     0.396120000000     0          
C402     C      0.172000000000     0.582500000000     0.417500000000     0          
H403     H      0.199510000000     0.575150000000     0.424850000000     0          
C404     C      0.142300000000     0.567000000000     0.433000000000     0          
H405     H      0.145790000000     0.546350000000     0.453650000000     0          
C406     C      0.131800000000     0.614700000000     0.385300000000     0          
H407     H      0.123570000000     0.634660000000     0.365340000000     0          
C408     C      0.191700000000     0.627200000000     0.372800000000     0          
C409     C      0.248900000000     0.661000000000     0.339000000000     0          
C410     C      0.278000000000     0.675900000000     0.324100000000     0          
O411     O      0.909300000000     0.464400000000     0.464400000000     0          
O412     O      0.945600000000     0.436500000000     0.436500000000     0          
C413     C      0.889400000000     0.423400000000     0.423400000000     0          
C414     C      0.913400000000     0.442000000000     0.442000000000     0          
C415     C      0.834100000000     0.391200000000     0.391200000000     0          
C416     C      0.897100000000     0.401800000000     0.401800000000     0          
H417     H      0.925390000000     0.396120000000     0.396120000000     0          
C418     C      0.828000000000     0.417500000000     0.417500000000     0          
H419     H      0.800490000000     0.424850000000     0.424850000000     0          
C420     C      0.857700000000     0.433000000000     0.433000000000     0          
H421     H      0.854210000000     0.453650000000     0.453650000000     0          
C422     C      0.868200000000     0.385300000000     0.385300000000     0          
H423     H      0.872760000000     0.364760000000     0.364760000000     0          
C424     C      0.808300000000     0.372800000000     0.372800000000     0          
C425     C      0.751100000000     0.339000000000     0.339000000000     0          
C426     C      0.722000000000     0.324100000000     0.324100000000     0          
O427     O      0.090700000000     0.464400000000     0.535600000000     0          
O428     O      0.054400000000     0.436500000000     0.563500000000     0          
C429     C      0.110600000000     0.423400000000     0.576600000000     0          
C430     C      0.086600000000     0.442000000000     0.558000000000     0          
C431     C      0.165900000000     0.391200000000     0.608800000000     0          
C432     C      0.102900000000     0.401800000000     0.598200000000     0          
H433     H      0.074610000000     0.396120000000     0.603880000000     0          
C434     C      0.172000000000     0.417500000000     0.582500000000     0          
H435     H      0.199510000000     0.424850000000     0.575150000000     0          
C436     C      0.142300000000     0.433000000000     0.567000000000     0          
H437     H      0.145790000000     0.453650000000     0.546350000000     0          
C438     C      0.131800000000     0.385300000000     0.614700000000     0          
H439     H      0.123570000000     0.365340000000     0.634660000000     0          
C440     C      0.191700000000     0.372800000000     0.627200000000     0          
C441     C      0.248900000000     0.339000000000     0.661000000000     0          
C442     C      0.278000000000     0.324100000000     0.675900000000     0          
O443     O      0.909300000000     0.535600000000     0.535600000000     0          
O444     O      0.945600000000     0.563500000000     0.563500000000     0          
C445     C      0.889400000000     0.576600000000     0.576600000000     0          
C446     C      0.913400000000     0.558000000000     0.558000000000     0          
C447     C      0.834100000000     0.608800000000     0.608800000000     0          
C448     C      0.897100000000     0.598200000000     0.598200000000     0          
H449     H      0.925390000000     0.603880000000     0.603880000000     0          
C450     C      0.828000000000     0.582500000000     0.582500000000     0          
H451     H      0.800490000000     0.575150000000     0.575150000000     0          
C452     C      0.857700000000     0.567000000000     0.567000000000     0          
H453     H      0.854210000000     0.546350000000     0.546350000000     0          
C454     C      0.868200000000     0.614700000000     0.614700000000     0          
H455     H      0.872760000000     0.635240000000     0.635240000000     0          
C456     C      0.808300000000     0.627200000000     0.627200000000     0          
C457     C      0.751100000000     0.661000000000     0.661000000000     0          
C458     C      0.722000000000     0.675900000000     0.675900000000     0          
O459     O      0.535600000000     0.535600000000     0.909300000000     0          
O460     O      0.563500000000     0.563500000000     0.945600000000     0          
C461     C      0.576600000000     0.576600000000     0.889400000000     0          
C462     C      0.558000000000     0.558000000000     0.913400000000     0          
C463     C      0.608800000000     0.608800000000     0.834100000000     0          
C464     C      0.598200000000     0.598200000000     0.897100000000     0          
H465     H      0.603880000000     0.603880000000     0.925390000000     0          
C466     C      0.582500000000     0.582500000000     0.828000000000     0          
H467     H      0.575150000000     0.575150000000     0.800490000000     0          
C468     C      0.567000000000     0.567000000000     0.857700000000     0          
H469     H      0.546350000000     0.546350000000     0.854210000000     0          
C470     C      0.614700000000     0.614700000000     0.868200000000     0          
H471     H      0.635240000000     0.635240000000     0.872760000000     0          
C472     C      0.627200000000     0.627200000000     0.808300000000     0          
C473     C      0.661000000000     0.661000000000     0.751100000000     0          
C474     C      0.675900000000     0.675900000000     0.722000000000     0          
O475     O      0.464400000000     0.535600000000     0.090700000000     0          
O476     O      0.436500000000     0.563500000000     0.054400000000     0          
C477     C      0.423400000000     0.576600000000     0.110600000000     0          
C478     C      0.442000000000     0.558000000000     0.086600000000     0          
C479     C      0.391200000000     0.608800000000     0.165900000000     0          
C480     C      0.401800000000     0.598200000000     0.102900000000     0          
H481     H      0.396120000000     0.603880000000     0.074610000000     0          
C482     C      0.417500000000     0.582500000000     0.172000000000     0          
H483     H      0.424850000000     0.575150000000     0.199510000000     0          
C484     C      0.433000000000     0.567000000000     0.142300000000     0          
H485     H      0.453650000000     0.546350000000     0.145790000000     0          
C486     C      0.385300000000     0.614700000000     0.131800000000     0          
H487     H      0.365340000000     0.634660000000     0.123570000000     0          
C488     C      0.372800000000     0.627200000000     0.191700000000     0          
C489     C      0.339000000000     0.661000000000     0.248900000000     0          
C490     C      0.324100000000     0.675900000000     0.278000000000     0          
O491     O      0.464400000000     0.464400000000     0.909300000000     0          
O492     O      0.436500000000     0.436500000000     0.945600000000     0          
C493     C      0.423400000000     0.423400000000     0.889400000000     0          
C494     C      0.442000000000     0.442000000000     0.913400000000     0          
C495     C      0.391200000000     0.391200000000     0.834100000000     0          
C496     C      0.401800000000     0.401800000000     0.897100000000     0          
H497     H      0.396120000000     0.396120000000     0.925390000000     0          
C498     C      0.417500000000     0.417500000000     0.828000000000     0          
H499     H      0.424850000000     0.424850000000     0.800490000000     0          
C500     C      0.433000000000     0.433000000000     0.857700000000     0          
H501     H      0.453650000000     0.453650000000     0.854210000000     0          
C502     C      0.385300000000     0.385300000000     0.868200000000     0          
H503     H      0.364760000000     0.364760000000     0.872760000000     0          
C504     C      0.372800000000     0.372800000000     0.808300000000     0          
C505     C      0.339000000000     0.339000000000     0.751100000000     0          
C506     C      0.324100000000     0.324100000000     0.722000000000     0          
O507     O      0.535600000000     0.464400000000     0.090700000000     0          
O508     O      0.563500000000     0.436500000000     0.054400000000     0          
C509     C      0.576600000000     0.423400000000     0.110600000000     0          
C510     C      0.558000000000     0.442000000000     0.086600000000     0          
C511     C      0.608800000000     0.391200000000     0.165900000000     0          
C512     C      0.598200000000     0.401800000000     0.102900000000     0          
H513     H      0.603880000000     0.396120000000     0.074610000000     0          
C514     C      0.582500000000     0.417500000000     0.172000000000     0          
H515     H      0.575150000000     0.424850000000     0.199510000000     0          
C516     C      0.567000000000     0.433000000000     0.142300000000     0          
H517     H      0.546350000000     0.453650000000     0.145790000000     0          
C518     C      0.614700000000     0.385300000000     0.131800000000     0          
H519     H      0.634660000000     0.365340000000     0.123570000000     0          
C520     C      0.627200000000     0.372800000000     0.191700000000     0          
C521     C      0.661000000000     0.339000000000     0.248900000000     0          
C522     C      0.675900000000     0.324100000000     0.278000000000     0          
O523     O      0.535600000000     0.090700000000     0.464400000000     0          
O524     O      0.563500000000     0.054400000000     0.436500000000     0          
C525     C      0.576600000000     0.110600000000     0.423400000000     0          
C526     C      0.558000000000     0.086600000000     0.442000000000     0          
C527     C      0.608800000000     0.165900000000     0.391200000000     0          
C528     C      0.598200000000     0.102900000000     0.401800000000     0          
H529     H      0.603880000000     0.074610000000     0.396120000000     0          
C530     C      0.582500000000     0.172000000000     0.417500000000     0          
H531     H      0.575150000000     0.199510000000     0.424850000000     0          
C532     C      0.567000000000     0.142300000000     0.433000000000     0          
H533     H      0.546350000000     0.145790000000     0.453650000000     0          
C534     C      0.614700000000     0.131800000000     0.385300000000     0          
H535     H      0.634660000000     0.123570000000     0.365340000000     0          
C536     C      0.627200000000     0.191700000000     0.372800000000     0          
C537     C      0.661000000000     0.248900000000     0.339000000000     0          
C538     C      0.675900000000     0.278000000000     0.324100000000     0          
O539     O      0.535600000000     0.909300000000     0.535600000000     0          
O540     O      0.563500000000     0.945600000000     0.563500000000     0          
C541     C      0.576600000000     0.889400000000     0.576600000000     0          
C542     C      0.558000000000     0.913400000000     0.558000000000     0          
C543     C      0.608800000000     0.834100000000     0.608800000000     0          
C544     C      0.598200000000     0.897100000000     0.598200000000     0          
H545     H      0.603880000000     0.925390000000     0.603880000000     0          
C546     C      0.582500000000     0.828000000000     0.582500000000     0          
H547     H      0.575150000000     0.800490000000     0.575150000000     0          
C548     C      0.567000000000     0.857700000000     0.567000000000     0          
H549     H      0.546350000000     0.854210000000     0.546350000000     0          
C550     C      0.614700000000     0.868200000000     0.614700000000     0          
H551     H      0.635240000000     0.872760000000     0.635240000000     0          
C552     C      0.627200000000     0.808300000000     0.627200000000     0          
C553     C      0.661000000000     0.751100000000     0.661000000000     0          
C554     C      0.675900000000     0.722000000000     0.675900000000     0          
O555     O      0.464400000000     0.090700000000     0.535600000000     0          
O556     O      0.436500000000     0.054400000000     0.563500000000     0          
C557     C      0.423400000000     0.110600000000     0.576600000000     0          
C558     C      0.442000000000     0.086600000000     0.558000000000     0          
C559     C      0.391200000000     0.165900000000     0.608800000000     0          
C560     C      0.401800000000     0.102900000000     0.598200000000     0          
H561     H      0.396120000000     0.074610000000     0.603880000000     0          
C562     C      0.417500000000     0.172000000000     0.582500000000     0          
H563     H      0.424850000000     0.199510000000     0.575150000000     0          
C564     C      0.433000000000     0.142300000000     0.567000000000     0          
H565     H      0.453650000000     0.145790000000     0.546350000000     0          
C566     C      0.385300000000     0.131800000000     0.614700000000     0          
H567     H      0.365340000000     0.123570000000     0.634660000000     0          
C568     C      0.372800000000     0.191700000000     0.627200000000     0          
C569     C      0.339000000000     0.248900000000     0.661000000000     0          
C570     C      0.324100000000     0.278000000000     0.675900000000     0          
O571     O      0.464400000000     0.909300000000     0.464400000000     0          
O572     O      0.436500000000     0.945600000000     0.436500000000     0          
C573     C      0.423400000000     0.889400000000     0.423400000000     0          
C574     C      0.442000000000     0.913400000000     0.442000000000     0          
C575     C      0.391200000000     0.834100000000     0.391200000000     0          
C576     C      0.401800000000     0.897100000000     0.401800000000     0          
H577     H      0.396120000000     0.925390000000     0.396120000000     0          
C578     C      0.417500000000     0.828000000000     0.417500000000     0          
H579     H      0.424850000000     0.800490000000     0.424850000000     0          
C580     C      0.433000000000     0.857700000000     0.433000000000     0          
H581     H      0.453650000000     0.854210000000     0.453650000000     0          
C582     C      0.385300000000     0.868200000000     0.385300000000     0          
H583     H      0.364760000000     0.872760000000     0.364760000000     0          
C584     C      0.372800000000     0.808300000000     0.372800000000     0          
C585     C      0.339000000000     0.751100000000     0.339000000000     0          
C586     C      0.324100000000     0.722000000000     0.324100000000     0          
C587     C      0.663600000000     0.294600000000     0.705400000000     0          
H588     H      0.640060000000     0.284010000000     0.719500000000     0          
C589     C      0.336400000000     0.705400000000     0.705400000000     0          
H590     H      0.359940000000     0.715990000000     0.719500000000     0          
C591     C      0.336400000000     0.294600000000     0.294600000000     0          
H592     H      0.359940000000     0.284010000000     0.280500000000     0          
C593     C      0.663600000000     0.705400000000     0.294600000000     0          
H594     H      0.640060000000     0.715990000000     0.280500000000     0          
C595     C      0.705400000000     0.663600000000     0.294600000000     0          
H596     H      0.719500000000     0.640060000000     0.284010000000     0          
C597     C      0.705400000000     0.336400000000     0.705400000000     0          
H598     H      0.719500000000     0.359940000000     0.715990000000     0          
C599     C      0.294600000000     0.336400000000     0.294600000000     0          
H600     H      0.280500000000     0.359940000000     0.284010000000     0          
C601     C      0.294600000000     0.663600000000     0.705400000000     0          
H602     H      0.280500000000     0.640060000000     0.715990000000     0          
C603     C      0.294600000000     0.705400000000     0.663600000000     0          
H604     H      0.280500000000     0.715990000000     0.640060000000     0          
C605     C      0.705400000000     0.705400000000     0.336400000000     0          
H606     H      0.719500000000     0.715990000000     0.359940000000     0          
C607     C      0.294600000000     0.294600000000     0.336400000000     0          
H608     H      0.280500000000     0.284010000000     0.359940000000     0          
C609     C      0.705400000000     0.294600000000     0.663600000000     0          
H610     H      0.719500000000     0.284010000000     0.640060000000     0          
C611     C      0.294600000000     0.663600000000     0.294600000000     0          
H612     H      0.284010000000     0.640060000000     0.280500000000     0          
C613     C      0.705400000000     0.336400000000     0.294600000000     0          
H614     H      0.715990000000     0.359940000000     0.280500000000     0          
C615     C      0.294600000000     0.336400000000     0.705400000000     0          
H616     H      0.284010000000     0.359940000000     0.719500000000     0          
C617     C      0.705400000000     0.663600000000     0.705400000000     0          
H618     H      0.715990000000     0.640060000000     0.719500000000     0          
C619     C      0.663600000000     0.705400000000     0.705400000000     0          
H620     H      0.640060000000     0.719500000000     0.715990000000     0          
C621     C      0.336400000000     0.705400000000     0.294600000000     0          
H622     H      0.359940000000     0.719500000000     0.284010000000     0          
C623     C      0.336400000000     0.294600000000     0.705400000000     0          
H624     H      0.359940000000     0.280500000000     0.715990000000     0          
C625     C      0.663600000000     0.294600000000     0.294600000000     0          
H626     H      0.640060000000     0.280500000000     0.284010000000     0          
C627     C      0.705400000000     0.294600000000     0.336400000000     0          
H628     H      0.715990000000     0.280500000000     0.359940000000     0          
C629     C      0.705400000000     0.705400000000     0.663600000000     0          
H630     H      0.715990000000     0.719500000000     0.640060000000     0          
C631     C      0.294600000000     0.294600000000     0.663600000000     0          
H632     H      0.284010000000     0.280500000000     0.640060000000     0          
C633     C      0.294600000000     0.705400000000     0.336400000000     0          
H634     H      0.284010000000     0.719500000000     0.359940000000     0          
Zr635    Zr     0.545370000000     0.000000000000     0.545370000000     0          
Zr636    Zr     0.454630000000     0.000000000000     0.545370000000     0          
Zr637    Zr     0.454630000000     0.000000000000     0.454630000000     0          
Zr638    Zr     0.545370000000     0.000000000000     0.454630000000     0          
Zr639    Zr     0.545370000000     0.545370000000     0.000000000000     0          
Zr640    Zr     0.545370000000     0.454630000000     0.000000000000     0          
Zr641    Zr     0.454630000000     0.454630000000     0.000000000000     0          
Zr642    Zr     0.454630000000     0.545370000000     0.000000000000     0          
Zr643    Zr     0.000000000000     0.545370000000     0.545370000000     0          
Zr644    Zr     0.000000000000     0.545370000000     0.454630000000     0          
Zr645    Zr     0.000000000000     0.454630000000     0.454630000000     0          
Zr646    Zr     0.000000000000     0.454630000000     0.545370000000     0          
O647     O      0.546900000000     0.032500000000     0.500000000000     0          
O648     O      0.453100000000     0.967500000000     0.500000000000     0          
O649     O      0.453100000000     0.032500000000     0.500000000000     0          
O650     O      0.546900000000     0.967500000000     0.500000000000     0          
O651     O      0.500000000000     0.546900000000     0.032500000000     0          
O652     O      0.500000000000     0.453100000000     0.967500000000     0          
O653     O      0.500000000000     0.453100000000     0.032500000000     0          
O654     O      0.500000000000     0.546900000000     0.967500000000     0          
O655     O      0.032500000000     0.500000000000     0.546900000000     0          
O656     O      0.967500000000     0.500000000000     0.453100000000     0          
O657     O      0.032500000000     0.500000000000     0.453100000000     0          
O658     O      0.967500000000     0.500000000000     0.546900000000     0          
O659     O      0.032500000000     0.546900000000     0.500000000000     0          
O660     O      0.967500000000     0.453100000000     0.500000000000     0          
O661     O      0.032500000000     0.453100000000     0.500000000000     0          
O662     O      0.967500000000     0.546900000000     0.500000000000     0          
O663     O      0.546900000000     0.500000000000     0.967500000000     0          
O664     O      0.453100000000     0.500000000000     0.032500000000     0          
O665     O      0.453100000000     0.500000000000     0.967500000000     0          
O666     O      0.546900000000     0.500000000000     0.032500000000     0          
O667     O      0.500000000000     0.032500000000     0.453100000000     0          
O668     O      0.500000000000     0.967500000000     0.546900000000     0          
O669     O      0.500000000000     0.032500000000     0.546900000000     0          
O670     O      0.500000000000     0.967500000000     0.453100000000     0          
O671     O      0.541880000000     0.000000000000     0.603180000000     0          
O672     O      0.458120000000     0.000000000000     0.603180000000     0          
O673     O      0.458120000000     0.000000000000     0.396820000000     0          
O674     O      0.541880000000     0.000000000000     0.396820000000     0          
O675     O      0.603180000000     0.541880000000     0.000000000000     0          
O676     O      0.603180000000     0.458120000000     0.000000000000     0          
O677     O      0.396820000000     0.458120000000     0.000000000000     0          
O678     O      0.396820000000     0.541880000000     0.000000000000     0          
O679     O      0.000000000000     0.603180000000     0.541880000000     0          
O680     O      0.000000000000     0.603180000000     0.458120000000     0          
O681     O      0.000000000000     0.396820000000     0.458120000000     0          
O682     O      0.000000000000     0.396820000000     0.541880000000     0          
O683     O      0.000000000000     0.541880000000     0.396820000000     0          
O684     O      0.000000000000     0.458120000000     0.396820000000     0          
O685     O      0.000000000000     0.458120000000     0.603180000000     0          
O686     O      0.000000000000     0.541880000000     0.603180000000     0          
O687     O      0.541880000000     0.603180000000     0.000000000000     0          
O688     O      0.458120000000     0.603180000000     0.000000000000     0          
O689     O      0.458120000000     0.396820000000     0.000000000000     0          
O690     O      0.541880000000     0.396820000000     0.000000000000     0          
O691     O      0.603180000000     0.000000000000     0.458120000000     0          
O692     O      0.603180000000     0.000000000000     0.541880000000     0          
O693     O      0.396820000000     0.000000000000     0.541880000000     0          
O694     O      0.396820000000     0.000000000000     0.458120000000     0          
C695     C      0.167600000000     0.126000000000     0.304000000000     0          
C696     C      0.183400000000     0.142000000000     0.277700000000     0          
C697     C      0.304000000000     0.167600000000     0.126000000000     0          
C698     C      0.277700000000     0.183400000000     0.142000000000     0          
C699     C      0.126000000000     0.304000000000     0.167600000000     0          
C700     C      0.142000000000     0.277700000000     0.183400000000     0          
C701     C      0.127200000000     0.841000000000     0.252200000000     0          
C702     C      0.110900000000     0.858000000000     0.278500000000     0          
C703     C      0.872800000000     0.159000000000     0.252200000000     0          
C704     C      0.889100000000     0.142000000000     0.278500000000     0          
C705     C      0.127200000000     0.159000000000     0.747800000000     0          
C706     C      0.110900000000     0.142000000000     0.721500000000     0          
C707     C      0.159000000000     0.747800000000     0.127200000000     0          
C708     C      0.142000000000     0.721500000000     0.110900000000     0          
C709     C      0.159000000000     0.252200000000     0.872800000000     0          
C710     C      0.142000000000     0.278500000000     0.889100000000     0          
C711     C      0.832400000000     0.304000000000     0.126000000000     0          
C712     C      0.816600000000     0.277700000000     0.142000000000     0          
C713     C      0.747800000000     0.127200000000     0.159000000000     0          
C714     C      0.721500000000     0.110900000000     0.142000000000     0          
C715     C      0.252200000000     0.127200000000     0.841000000000     0          
C716     C      0.278500000000     0.110900000000     0.858000000000     0          
C717     C      0.304000000000     0.874000000000     0.167600000000     0          
C718     C      0.277700000000     0.858000000000     0.183400000000     0          
C719     C      0.167600000000     0.874000000000     0.304000000000     0          
C720     C      0.183400000000     0.858000000000     0.277700000000     0          
C721     C      0.832400000000     0.126000000000     0.304000000000     0          
C722     C      0.816600000000     0.142000000000     0.277700000000     0          
C723     C      0.167600000000     0.126000000000     0.696000000000     0          
C724     C      0.183400000000     0.142000000000     0.722300000000     0          
C725     C      0.304000000000     0.167600000000     0.874000000000     0          
C726     C      0.277700000000     0.183400000000     0.858000000000     0          
C727     C      0.252200000000     0.841000000000     0.127200000000     0          
C728     C      0.278500000000     0.858000000000     0.110900000000     0          
C729     C      0.696000000000     0.167600000000     0.126000000000     0          
C730     C      0.722300000000     0.183400000000     0.142000000000     0          
C731     C      0.872800000000     0.252200000000     0.159000000000     0          
C732     C      0.889100000000     0.278500000000     0.142000000000     0          
C733     C      0.126000000000     0.304000000000     0.832400000000     0          
C734     C      0.142000000000     0.277700000000     0.816600000000     0          
C735     C      0.126000000000     0.696000000000     0.167600000000     0          
C736     C      0.142000000000     0.722300000000     0.183400000000     0          
C737     C      0.127200000000     0.159000000000     0.252200000000     0          
C738     C      0.110900000000     0.142000000000     0.278500000000     0          
C739     C      0.159000000000     0.252200000000     0.127200000000     0          
C740     C      0.142000000000     0.278500000000     0.110900000000     0          
C741     C      0.252200000000     0.127200000000     0.159000000000     0          
C742     C      0.278500000000     0.110900000000     0.142000000000     0          
C743     C      0.164100000000     0.207800000000     0.207800000000     0          
C744     C      0.207800000000     0.164100000000     0.207800000000     0          
C745     C      0.207800000000     0.207800000000     0.164100000000     0          
C746     C      0.207800000000     0.835900000000     0.207800000000     0          
C747     C      0.792200000000     0.164100000000     0.207800000000     0          
C748     C      0.207800000000     0.164100000000     0.792200000000     0          
C749     C      0.164100000000     0.792200000000     0.207800000000     0          
C750     C      0.164100000000     0.207800000000     0.792200000000     0          
C751     C      0.835900000000     0.207800000000     0.207800000000     0          
C752     C      0.792200000000     0.207800000000     0.164100000000     0          
C753     C      0.207800000000     0.207800000000     0.835900000000     0          
C754     C      0.207800000000     0.792200000000     0.164100000000     0          
O755     O      0.890600000000     0.041500000000     0.500000000000     0          
O756     O      0.109400000000     0.958500000000     0.500000000000     0          
O757     O      0.109400000000     0.041500000000     0.500000000000     0          
O758     O      0.890600000000     0.958500000000     0.500000000000     0          
O759     O      0.500000000000     0.890600000000     0.041500000000     0          
O760     O      0.500000000000     0.109400000000     0.958500000000     0          
O761     O      0.500000000000     0.109400000000     0.041500000000     0          
O762     O      0.500000000000     0.890600000000     0.958500000000     0          
O763     O      0.041500000000     0.500000000000     0.890600000000     0          
O764     O      0.958500000000     0.500000000000     0.109400000000     0          
O765     O      0.041500000000     0.500000000000     0.109400000000     0          
O766     O      0.958500000000     0.500000000000     0.890600000000     0          
O767     O      0.041500000000     0.890600000000     0.500000000000     0          
O768     O      0.958500000000     0.109400000000     0.500000000000     0          
O769     O      0.041500000000     0.109400000000     0.500000000000     0          
O770     O      0.958500000000     0.890600000000     0.500000000000     0          
O771     O      0.890600000000     0.500000000000     0.958500000000     0          
O772     O      0.109400000000     0.500000000000     0.041500000000     0          
O773     O      0.109400000000     0.500000000000     0.958500000000     0          
O774     O      0.890600000000     0.500000000000     0.041500000000     0          
O775     O      0.500000000000     0.041500000000     0.109400000000     0          
O776     O      0.500000000000     0.958500000000     0.890600000000     0          
O777     O      0.500000000000     0.041500000000     0.890600000000     0          
O778     O      0.500000000000     0.958500000000     0.109400000000     0          
Zr779    Zr     0.000000000000     0.000000000000     0.564100000000     0          
Zr780    Zr     0.000000000000     0.000000000000     0.435900000000     0          
Zr781    Zr     0.564100000000     0.000000000000     0.000000000000     0          
Zr782    Zr     0.435900000000     0.000000000000     0.000000000000     0          
Zr783    Zr     0.000000000000     0.564100000000     0.000000000000     0          
Zr784    Zr     0.000000000000     0.435900000000     0.000000000000     0          
Zr785    Zr     0.953000000000     0.047000000000     0.500000000000     0          
Zr786    Zr     0.047000000000     0.953000000000     0.500000000000     0          
Zr787    Zr     0.047000000000     0.047000000000     0.500000000000     0          
Zr788    Zr     0.953000000000     0.953000000000     0.500000000000     0          
Zr789    Zr     0.500000000000     0.953000000000     0.047000000000     0          
Zr790    Zr     0.500000000000     0.047000000000     0.953000000000     0          
Zr791    Zr     0.500000000000     0.047000000000     0.047000000000     0          
Zr792    Zr     0.500000000000     0.953000000000     0.953000000000     0          
Zr793    Zr     0.047000000000     0.500000000000     0.953000000000     0          
Zr794    Zr     0.953000000000     0.500000000000     0.047000000000     0          
Zr795    Zr     0.047000000000     0.500000000000     0.047000000000     0          
Zr796    Zr     0.953000000000     0.500000000000     0.953000000000     0          
O797     O      0.037300000000     0.037300000000     0.398700000000     0          
O798     O      0.064000000000     0.064000000000     0.440800000000     0          
C799     C      0.057300000000     0.057300000000     0.410900000000     0          
C800     C      0.117300000000     0.117300000000     0.368500000000     0          
C801     C      0.074600000000     0.074600000000     0.382800000000     0          
C802     C      0.110700000000     0.110700000000     0.332300000000     0          
C803     C      0.100100000000     0.100100000000     0.392600000000     0          
C804     C      0.086400000000     0.086400000000     0.322700000000     0          
C805     C      0.067800000000     0.067800000000     0.349300000000     0          
C806     C      0.130300000000     0.130300000000     0.307200000000     0          
C807     C      0.178800000000     0.178800000000     0.222800000000     0          
C808     C      0.163600000000     0.163600000000     0.253700000000     0          
O809     O      0.398700000000     0.037300000000     0.037300000000     0          
O810     O      0.440800000000     0.064000000000     0.064000000000     0          
C811     C      0.410900000000     0.057300000000     0.057300000000     0          
C812     C      0.368500000000     0.117300000000     0.117300000000     0          
C813     C      0.382800000000     0.074600000000     0.074600000000     0          
C814     C      0.332300000000     0.110700000000     0.110700000000     0          
C815     C      0.392600000000     0.100100000000     0.100100000000     0          
C816     C      0.322700000000     0.086400000000     0.086400000000     0          
C817     C      0.349300000000     0.067800000000     0.067800000000     0          
C818     C      0.307200000000     0.130300000000     0.130300000000     0          
C819     C      0.222800000000     0.178800000000     0.178800000000     0          
C820     C      0.253700000000     0.163600000000     0.163600000000     0          
O821     O      0.037300000000     0.398700000000     0.037300000000     0          
O822     O      0.064000000000     0.440800000000     0.064000000000     0          
C823     C      0.057300000000     0.410900000000     0.057300000000     0          
C824     C      0.117300000000     0.368500000000     0.117300000000     0          
C825     C      0.074600000000     0.382800000000     0.074600000000     0          
C826     C      0.110700000000     0.332300000000     0.110700000000     0          
C827     C      0.100100000000     0.392600000000     0.100100000000     0          
C828     C      0.086400000000     0.322700000000     0.086400000000     0          
C829     C      0.067800000000     0.349300000000     0.067800000000     0          
C830     C      0.130300000000     0.307200000000     0.130300000000     0          
C831     C      0.178800000000     0.222800000000     0.178800000000     0          
C832     C      0.163600000000     0.253700000000     0.163600000000     0          
O833     O      0.037300000000     0.962700000000     0.398700000000     0          
O834     O      0.064000000000     0.936000000000     0.440800000000     0          
C835     C      0.057300000000     0.942700000000     0.410900000000     0          
C836     C      0.117300000000     0.882700000000     0.368500000000     0          
C837     C      0.074600000000     0.925400000000     0.382800000000     0          
C838     C      0.110700000000     0.889300000000     0.332300000000     0          
C839     C      0.100100000000     0.899900000000     0.392600000000     0          
C840     C      0.086400000000     0.913600000000     0.322700000000     0          
C841     C      0.067800000000     0.932200000000     0.349300000000     0          
C842     C      0.130300000000     0.869700000000     0.307200000000     0          
C843     C      0.178800000000     0.821200000000     0.222800000000     0          
C844     C      0.163600000000     0.836400000000     0.253700000000     0          
O845     O      0.962700000000     0.037300000000     0.398700000000     0          
O846     O      0.936000000000     0.064000000000     0.440800000000     0          
C847     C      0.942700000000     0.057300000000     0.410900000000     0          
C848     C      0.882700000000     0.117300000000     0.368500000000     0          
C849     C      0.925400000000     0.074600000000     0.382800000000     0          
C850     C      0.889300000000     0.110700000000     0.332300000000     0          
C851     C      0.899900000000     0.100100000000     0.392600000000     0          
C852     C      0.913600000000     0.086400000000     0.322700000000     0          
C853     C      0.932200000000     0.067800000000     0.349300000000     0          
C854     C      0.869700000000     0.130300000000     0.307200000000     0          
C855     C      0.821200000000     0.178800000000     0.222800000000     0          
C856     C      0.836400000000     0.163600000000     0.253700000000     0          
O857     O      0.037300000000     0.037300000000     0.601300000000     0          
O858     O      0.064000000000     0.064000000000     0.559200000000     0          
C859     C      0.057300000000     0.057300000000     0.589100000000     0          
C860     C      0.117300000000     0.117300000000     0.631500000000     0          
C861     C      0.074600000000     0.074600000000     0.617200000000     0          
C862     C      0.110700000000     0.110700000000     0.667700000000     0          
C863     C      0.100100000000     0.100100000000     0.607400000000     0          
C864     C      0.086400000000     0.086400000000     0.677300000000     0          
C865     C      0.067800000000     0.067800000000     0.650700000000     0          
C866     C      0.130300000000     0.130300000000     0.692800000000     0          
C867     C      0.178800000000     0.178800000000     0.777200000000     0          
C868     C      0.163600000000     0.163600000000     0.746300000000     0          
O869     O      0.037300000000     0.601300000000     0.037300000000     0          
O870     O      0.064000000000     0.559200000000     0.064000000000     0          
C871     C      0.057300000000     0.589100000000     0.057300000000     0          
C872     C      0.117300000000     0.631500000000     0.117300000000     0          
C873     C      0.074600000000     0.617200000000     0.074600000000     0          
C874     C      0.110700000000     0.667700000000     0.110700000000     0          
C875     C      0.100100000000     0.607400000000     0.100100000000     0          
C876     C      0.086400000000     0.677300000000     0.086400000000     0          
C877     C      0.067800000000     0.650700000000     0.067800000000     0          
C878     C      0.130300000000     0.692800000000     0.130300000000     0          
C879     C      0.178800000000     0.777200000000     0.178800000000     0          
C880     C      0.163600000000     0.746300000000     0.163600000000     0          
O881     O      0.037300000000     0.398700000000     0.962700000000     0          
O882     O      0.064000000000     0.440800000000     0.936000000000     0          
C883     C      0.057300000000     0.410900000000     0.942700000000     0          
C884     C      0.117300000000     0.368500000000     0.882700000000     0          
C885     C      0.074600000000     0.382800000000     0.925400000000     0          
C886     C      0.110700000000     0.332300000000     0.889300000000     0          
C887     C      0.100100000000     0.392600000000     0.899900000000     0          
C888     C      0.086400000000     0.322700000000     0.913600000000     0          
C889     C      0.067800000000     0.349300000000     0.932200000000     0          
C890     C      0.130300000000     0.307200000000     0.869700000000     0          
C891     C      0.178800000000     0.222800000000     0.821200000000     0          
C892     C      0.163600000000     0.253700000000     0.836400000000     0          
O893     O      0.962700000000     0.398700000000     0.037300000000     0          
O894     O      0.936000000000     0.440800000000     0.064000000000     0          
C895     C      0.942700000000     0.410900000000     0.057300000000     0          
C896     C      0.882700000000     0.368500000000     0.117300000000     0          
C897     C      0.925400000000     0.382800000000     0.074600000000     0          
C898     C      0.889300000000     0.332300000000     0.110700000000     0          
C899     C      0.899900000000     0.392600000000     0.100100000000     0          
C900     C      0.913600000000     0.322700000000     0.086400000000     0          
C901     C      0.932200000000     0.349300000000     0.067800000000     0          
C902     C      0.869700000000     0.307200000000     0.130300000000     0          
C903     C      0.821200000000     0.222800000000     0.178800000000     0          
C904     C      0.836400000000     0.253700000000     0.163600000000     0          
O905     O      0.601300000000     0.037300000000     0.037300000000     0          
O906     O      0.559200000000     0.064000000000     0.064000000000     0          
C907     C      0.589100000000     0.057300000000     0.057300000000     0          
C908     C      0.631500000000     0.117300000000     0.117300000000     0          
C909     C      0.617200000000     0.074600000000     0.074600000000     0          
C910     C      0.667700000000     0.110700000000     0.110700000000     0          
C911     C      0.607400000000     0.100100000000     0.100100000000     0          
C912     C      0.677300000000     0.086400000000     0.086400000000     0          
C913     C      0.650700000000     0.067800000000     0.067800000000     0          
C914     C      0.692800000000     0.130300000000     0.130300000000     0          
C915     C      0.777200000000     0.178800000000     0.178800000000     0          
C916     C      0.746300000000     0.163600000000     0.163600000000     0          
O917     O      0.398700000000     0.037300000000     0.962700000000     0          
O918     O      0.440800000000     0.064000000000     0.936000000000     0          
C919     C      0.410900000000     0.057300000000     0.942700000000     0          
C920     C      0.368500000000     0.117300000000     0.882700000000     0          
C921     C      0.382800000000     0.074600000000     0.925400000000     0          
C922     C      0.332300000000     0.110700000000     0.889300000000     0          
C923     C      0.392600000000     0.100100000000     0.899900000000     0          
C924     C      0.322700000000     0.086400000000     0.913600000000     0          
C925     C      0.349300000000     0.067800000000     0.932200000000     0          
C926     C      0.307200000000     0.130300000000     0.869700000000     0          
C927     C      0.222800000000     0.178800000000     0.821200000000     0          
C928     C      0.253700000000     0.163600000000     0.836400000000     0          
O929     O      0.398700000000     0.962700000000     0.037300000000     0          
O930     O      0.440800000000     0.936000000000     0.064000000000     0          
C931     C      0.410900000000     0.942700000000     0.057300000000     0          
C932     C      0.368500000000     0.882700000000     0.117300000000     0          
C933     C      0.382800000000     0.925400000000     0.074600000000     0          
C934     C      0.332300000000     0.889300000000     0.110700000000     0          
C935     C      0.392600000000     0.899900000000     0.100100000000     0          
C936     C      0.322700000000     0.913600000000     0.086400000000     0          
C937     C      0.349300000000     0.932200000000     0.067800000000     0          
C938     C      0.307200000000     0.869700000000     0.130300000000     0          
C939     C      0.222800000000     0.821200000000     0.178800000000     0          
C940     C      0.253700000000     0.836400000000     0.163600000000     0          
O941     O      0.000000000000     0.038500000000     0.528600000000     0          
O942     O      0.000000000000     0.961500000000     0.528600000000     0          
O943     O      0.000000000000     0.038500000000     0.471400000000     0          
O944     O      0.000000000000     0.961500000000     0.471400000000     0          
O945     O      0.528600000000     0.000000000000     0.038500000000     0          
O946     O      0.528600000000     0.000000000000     0.961500000000     0          
O947     O      0.471400000000     0.000000000000     0.038500000000     0          
O948     O      0.471400000000     0.000000000000     0.961500000000     0          
O949     O      0.038500000000     0.528600000000     0.000000000000     0          
O950     O      0.961500000000     0.528600000000     0.000000000000     0          
O951     O      0.038500000000     0.471400000000     0.000000000000     0          
O952     O      0.961500000000     0.471400000000     0.000000000000     0          
O953     O      0.038500000000     0.000000000000     0.471400000000     0          
O954     O      0.961500000000     0.000000000000     0.471400000000     0          
O955     O      0.038500000000     0.000000000000     0.528600000000     0          
O956     O      0.961500000000     0.000000000000     0.528600000000     0          
O957     O      0.000000000000     0.528600000000     0.961500000000     0          
O958     O      0.000000000000     0.528600000000     0.038500000000     0          
O959     O      0.000000000000     0.471400000000     0.961500000000     0          
O960     O      0.000000000000     0.471400000000     0.038500000000     0          
O961     O      0.528600000000     0.038500000000     0.000000000000     0          
O962     O      0.528600000000     0.961500000000     0.000000000000     0          
O963     O      0.471400000000     0.038500000000     0.000000000000     0          
O964     O      0.471400000000     0.961500000000     0.000000000000     0          
C965     C      0.841000000000     0.127200000000     0.747800000000     0          
C966     C      0.858000000000     0.110900000000     0.721500000000     0          
C967     C      0.747800000000     0.159000000000     0.872800000000     0          
C968     C      0.721500000000     0.142000000000     0.889100000000     0          
C969     C      0.874000000000     0.304000000000     0.832400000000     0          
C970     C      0.858000000000     0.277700000000     0.816600000000     0          
C971     C      0.874000000000     0.167600000000     0.696000000000     0          
C972     C      0.858000000000     0.183400000000     0.722300000000     0          
C973     C      0.841000000000     0.252200000000     0.872800000000     0          
C974     C      0.858000000000     0.278500000000     0.889100000000     0          
C975     C      0.696000000000     0.126000000000     0.832400000000     0          
C976     C      0.722300000000     0.142000000000     0.816600000000     0          
C977     C      0.835900000000     0.207800000000     0.792200000000     0          
C978     C      0.792200000000     0.164100000000     0.792200000000     0          
C979     C      0.792200000000     0.207800000000     0.835900000000     0          
O980     O      0.962700000000     0.037300000000     0.601300000000     0          
O981     O      0.936000000000     0.064000000000     0.559200000000     0          
C982     C      0.942700000000     0.057300000000     0.589100000000     0          
C983     C      0.882700000000     0.117300000000     0.631500000000     0          
C984     C      0.925400000000     0.074600000000     0.617200000000     0          
C985     C      0.889300000000     0.110700000000     0.667700000000     0          
C986     C      0.899900000000     0.100100000000     0.607400000000     0          
C987     C      0.913600000000     0.086400000000     0.677300000000     0          
C988     C      0.932200000000     0.067800000000     0.650700000000     0          
C989     C      0.869700000000     0.130300000000     0.692800000000     0          
C990     C      0.821200000000     0.178800000000     0.777200000000     0          
C991     C      0.836400000000     0.163600000000     0.746300000000     0          
O992     O      0.601300000000     0.037300000000     0.962700000000     0          
O993     O      0.559200000000     0.064000000000     0.936000000000     0          
C994     C      0.589100000000     0.057300000000     0.942700000000     0          
C995     C      0.631500000000     0.117300000000     0.882700000000     0          
C996     C      0.617200000000     0.074600000000     0.925400000000     0          
C997     C      0.667700000000     0.110700000000     0.889300000000     0          
C998     C      0.607400000000     0.100100000000     0.899900000000     0          
C999     C      0.677300000000     0.086400000000     0.913600000000     0          
C1000    C      0.650700000000     0.067800000000     0.932200000000     0          
C1001    C      0.692800000000     0.130300000000     0.869700000000     0          
C1002    C      0.777200000000     0.178800000000     0.821200000000     0          
C1003    C      0.746300000000     0.163600000000     0.836400000000     0          
O1004    O      0.962700000000     0.398700000000     0.962700000000     0          
O1005    O      0.936000000000     0.440800000000     0.936000000000     0          
C1006    C      0.942700000000     0.410900000000     0.942700000000     0          
C1007    C      0.882700000000     0.368500000000     0.882700000000     0          
C1008    C      0.925400000000     0.382800000000     0.925400000000     0          
C1009    C      0.889300000000     0.332300000000     0.889300000000     0          
C1010    C      0.899900000000     0.392600000000     0.899900000000     0          
C1011    C      0.913600000000     0.322700000000     0.913600000000     0          
C1012    C      0.932200000000     0.349300000000     0.932200000000     0          
C1013    C      0.869700000000     0.307200000000     0.869700000000     0          
C1014    C      0.821200000000     0.222800000000     0.821200000000     0          
C1015    C      0.836400000000     0.253700000000     0.836400000000     0          
C1016    C      0.167600000000     0.874000000000     0.696000000000     0          
C1017    C      0.183400000000     0.858000000000     0.722300000000     0          
C1018    C      0.304000000000     0.832400000000     0.874000000000     0          
C1019    C      0.277700000000     0.816600000000     0.858000000000     0          
C1020    C      0.127200000000     0.747800000000     0.841000000000     0          
C1021    C      0.110900000000     0.721500000000     0.858000000000     0          
C1022    C      0.127200000000     0.841000000000     0.747800000000     0          
C1023    C      0.110900000000     0.858000000000     0.721500000000     0          
C1024    C      0.167600000000     0.696000000000     0.874000000000     0          
C1025    C      0.183400000000     0.722300000000     0.858000000000     0          
C1026    C      0.252200000000     0.872800000000     0.841000000000     0          
C1027    C      0.278500000000     0.889100000000     0.858000000000     0          
C1028    C      0.164100000000     0.792200000000     0.792200000000     0          
C1029    C      0.207800000000     0.835900000000     0.792200000000     0          
C1030    C      0.207800000000     0.792200000000     0.835900000000     0          
O1031    O      0.037300000000     0.962700000000     0.601300000000     0          
O1032    O      0.064000000000     0.936000000000     0.559200000000     0          
C1033    C      0.057300000000     0.942700000000     0.589100000000     0          
C1034    C      0.117300000000     0.882700000000     0.631500000000     0          
C1035    C      0.074600000000     0.925400000000     0.617200000000     0          
C1036    C      0.110700000000     0.889300000000     0.667700000000     0          
C1037    C      0.100100000000     0.899900000000     0.607400000000     0          
C1038    C      0.086400000000     0.913600000000     0.677300000000     0          
C1039    C      0.067800000000     0.932200000000     0.650700000000     0          
C1040    C      0.130300000000     0.869700000000     0.692800000000     0          
C1041    C      0.178800000000     0.821200000000     0.777200000000     0          
C1042    C      0.163600000000     0.836400000000     0.746300000000     0          
O1043    O      0.398700000000     0.962700000000     0.962700000000     0          
O1044    O      0.440800000000     0.936000000000     0.936000000000     0          
C1045    C      0.410900000000     0.942700000000     0.942700000000     0          
C1046    C      0.368500000000     0.882700000000     0.882700000000     0          
C1047    C      0.382800000000     0.925400000000     0.925400000000     0          
C1048    C      0.332300000000     0.889300000000     0.889300000000     0          
C1049    C      0.392600000000     0.899900000000     0.899900000000     0          
C1050    C      0.322700000000     0.913600000000     0.913600000000     0          
C1051    C      0.349300000000     0.932200000000     0.932200000000     0          
C1052    C      0.307200000000     0.869700000000     0.869700000000     0          
C1053    C      0.222800000000     0.821200000000     0.821200000000     0          
C1054    C      0.253700000000     0.836400000000     0.836400000000     0          
O1055    O      0.037300000000     0.601300000000     0.962700000000     0          
O1056    O      0.064000000000     0.559200000000     0.936000000000     0          
C1057    C      0.057300000000     0.589100000000     0.942700000000     0          
C1058    C      0.117300000000     0.631500000000     0.882700000000     0          
C1059    C      0.074600000000     0.617200000000     0.925400000000     0          
C1060    C      0.110700000000     0.667700000000     0.889300000000     0          
C1061    C      0.100100000000     0.607400000000     0.899900000000     0          
C1062    C      0.086400000000     0.677300000000     0.913600000000     0          
C1063    C      0.067800000000     0.650700000000     0.932200000000     0          
C1064    C      0.130300000000     0.692800000000     0.869700000000     0          
C1065    C      0.178800000000     0.777200000000     0.821200000000     0          
C1066    C      0.163600000000     0.746300000000     0.836400000000     0          
C1067    C      0.841000000000     0.872800000000     0.252200000000     0          
C1068    C      0.858000000000     0.889100000000     0.278500000000     0          
C1069    C      0.696000000000     0.832400000000     0.126000000000     0          
C1070    C      0.722300000000     0.816600000000     0.142000000000     0          
C1071    C      0.874000000000     0.696000000000     0.167600000000     0          
C1072    C      0.858000000000     0.722300000000     0.183400000000     0          
C1073    C      0.874000000000     0.832400000000     0.304000000000     0          
C1074    C      0.858000000000     0.816600000000     0.277700000000     0          
C1075    C      0.841000000000     0.747800000000     0.127200000000     0          
C1076    C      0.858000000000     0.721500000000     0.110900000000     0          
C1077    C      0.747800000000     0.872800000000     0.159000000000     0          
C1078    C      0.721500000000     0.889100000000     0.142000000000     0          
C1079    C      0.835900000000     0.792200000000     0.207800000000     0          
C1080    C      0.792200000000     0.835900000000     0.207800000000     0          
C1081    C      0.792200000000     0.792200000000     0.164100000000     0          
O1082    O      0.962700000000     0.962700000000     0.398700000000     0          
O1083    O      0.936000000000     0.936000000000     0.440800000000     0          
C1084    C      0.942700000000     0.942700000000     0.410900000000     0          
C1085    C      0.882700000000     0.882700000000     0.368500000000     0          
C1086    C      0.925400000000     0.925400000000     0.382800000000     0          
C1087    C      0.889300000000     0.889300000000     0.332300000000     0          
C1088    C      0.899900000000     0.899900000000     0.392600000000     0          
C1089    C      0.913600000000     0.913600000000     0.322700000000     0          
C1090    C      0.932200000000     0.932200000000     0.349300000000     0          
C1091    C      0.869700000000     0.869700000000     0.307200000000     0          
C1092    C      0.821200000000     0.821200000000     0.222800000000     0          
C1093    C      0.836400000000     0.836400000000     0.253700000000     0          
O1094    O      0.601300000000     0.962700000000     0.037300000000     0          
O1095    O      0.559200000000     0.936000000000     0.064000000000     0          
C1096    C      0.589100000000     0.942700000000     0.057300000000     0          
C1097    C      0.631500000000     0.882700000000     0.117300000000     0          
C1098    C      0.617200000000     0.925400000000     0.074600000000     0          
C1099    C      0.667700000000     0.889300000000     0.110700000000     0          
C1100    C      0.607400000000     0.899900000000     0.100100000000     0          
C1101    C      0.677300000000     0.913600000000     0.086400000000     0          
C1102    C      0.650700000000     0.932200000000     0.067800000000     0          
C1103    C      0.692800000000     0.869700000000     0.130300000000     0          
C1104    C      0.777200000000     0.821200000000     0.178800000000     0          
C1105    C      0.746300000000     0.836400000000     0.163600000000     0          
O1106    O      0.962700000000     0.601300000000     0.037300000000     0          
O1107    O      0.936000000000     0.559200000000     0.064000000000     0          
C1108    C      0.942700000000     0.589100000000     0.057300000000     0          
C1109    C      0.882700000000     0.631500000000     0.117300000000     0          
C1110    C      0.925400000000     0.617200000000     0.074600000000     0          
C1111    C      0.889300000000     0.667700000000     0.110700000000     0          
C1112    C      0.899900000000     0.607400000000     0.100100000000     0          
C1113    C      0.913600000000     0.677300000000     0.086400000000     0          
C1114    C      0.932200000000     0.650700000000     0.067800000000     0          
C1115    C      0.869700000000     0.692800000000     0.130300000000     0          
C1116    C      0.821200000000     0.777200000000     0.178800000000     0          
C1117    C      0.836400000000     0.746300000000     0.163600000000     0          
C1118    C      0.872800000000     0.841000000000     0.747800000000     0          
C1119    C      0.889100000000     0.858000000000     0.721500000000     0          
C1120    C      0.841000000000     0.747800000000     0.872800000000     0          
C1121    C      0.858000000000     0.721500000000     0.889100000000     0          
C1122    C      0.747800000000     0.872800000000     0.841000000000     0          
C1123    C      0.721500000000     0.889100000000     0.858000000000     0          
C1124    C      0.832400000000     0.874000000000     0.696000000000     0          
C1125    C      0.816600000000     0.858000000000     0.722300000000     0          
C1126    C      0.696000000000     0.832400000000     0.874000000000     0          
C1127    C      0.722300000000     0.816600000000     0.858000000000     0          
C1128    C      0.874000000000     0.696000000000     0.832400000000     0          
C1129    C      0.858000000000     0.722300000000     0.816600000000     0          
C1130    C      0.792200000000     0.835900000000     0.792200000000     0          
C1131    C      0.835900000000     0.792200000000     0.792200000000     0          
C1132    C      0.792200000000     0.792200000000     0.835900000000     0          
O1133    O      0.962700000000     0.962700000000     0.601300000000     0          
O1134    O      0.936000000000     0.936000000000     0.559200000000     0          
C1135    C      0.942700000000     0.942700000000     0.589100000000     0          
C1136    C      0.882700000000     0.882700000000     0.631500000000     0          
C1137    C      0.925400000000     0.925400000000     0.617200000000     0          
C1138    C      0.889300000000     0.889300000000     0.667700000000     0          
C1139    C      0.899900000000     0.899900000000     0.607400000000     0          
C1140    C      0.913600000000     0.913600000000     0.677300000000     0          
C1141    C      0.932200000000     0.932200000000     0.650700000000     0          
C1142    C      0.869700000000     0.869700000000     0.692800000000     0          
C1143    C      0.821200000000     0.821200000000     0.777200000000     0          
C1144    C      0.836400000000     0.836400000000     0.746300000000     0          
O1145    O      0.962700000000     0.601300000000     0.962700000000     0          
O1146    O      0.936000000000     0.559200000000     0.936000000000     0          
C1147    C      0.942700000000     0.589100000000     0.942700000000     0          
C1148    C      0.882700000000     0.631500000000     0.882700000000     0          
C1149    C      0.925400000000     0.617200000000     0.925400000000     0          
C1150    C      0.889300000000     0.667700000000     0.889300000000     0          
C1151    C      0.899900000000     0.607400000000     0.899900000000     0          
C1152    C      0.913600000000     0.677300000000     0.913600000000     0          
C1153    C      0.932200000000     0.650700000000     0.932200000000     0          
C1154    C      0.869700000000     0.692800000000     0.869700000000     0          
C1155    C      0.821200000000     0.777200000000     0.821200000000     0          
C1156    C      0.836400000000     0.746300000000     0.836400000000     0          
O1157    O      0.601300000000     0.962700000000     0.962700000000     0          
O1158    O      0.559200000000     0.936000000000     0.936000000000     0          
C1159    C      0.589100000000     0.942700000000     0.942700000000     0          
C1160    C      0.631500000000     0.882700000000     0.882700000000     0          
C1161    C      0.617200000000     0.925400000000     0.925400000000     0          
C1162    C      0.667700000000     0.889300000000     0.889300000000     0          
C1163    C      0.607400000000     0.899900000000     0.899900000000     0          
C1164    C      0.677300000000     0.913600000000     0.913600000000     0          
C1165    C      0.650700000000     0.932200000000     0.932200000000     0          
C1166    C      0.692800000000     0.869700000000     0.869700000000     0          
C1167    C      0.777200000000     0.821200000000     0.821200000000     0          
C1168    C      0.746300000000     0.836400000000     0.836400000000     0          
H1169    H      0.183250000000     0.677130000000     0.890240000000     0          
H1170    H      0.212390000000     0.726130000000     0.861130000000     0          
H1171    H      0.081890000000     0.722760000000     0.862670000000     0          
H1172    H      0.111640000000     0.770540000000     0.830720000000     0          
H1173    H      0.081230000000     0.705790000000     0.918770000000     0          
H1174    H      0.047620000000     0.657810000000     0.952380000000     0          
H1175    H      0.105390000000     0.578960000000     0.894610000000     0          
H1176    H      0.137330000000     0.623620000000     0.862670000000     0          
H1177    H      0.952380000000     0.657810000000     0.952380000000     0          
H1178    H      0.894610000000     0.578960000000     0.894610000000     0          
H1179    H      0.862670000000     0.623620000000     0.862670000000     0          
H1180    H      0.918770000000     0.705790000000     0.918770000000     0          
H1181    H      0.890240000000     0.677130000000     0.816750000000     0          
H1182    H      0.862670000000     0.722760000000     0.918110000000     0          
H1183    H      0.830720000000     0.770540000000     0.888360000000     0          
H1184    H      0.861130000000     0.726130000000     0.787610000000     0          
H1185    H      0.860290000000     0.780460000000     0.780710000000     0          
H1186    H      0.780460000000     0.780710000000     0.860290000000     0          
H1187    H      0.780460000000     0.860290000000     0.780710000000     0          
H1188    H      0.888360000000     0.830720000000     0.770540000000     0          
H1189    H      0.918110000000     0.862670000000     0.722760000000     0          
H1190    H      0.787610000000     0.861130000000     0.726130000000     0          
H1191    H      0.816750000000     0.890240000000     0.677130000000     0          
H1192    H      0.722760000000     0.918110000000     0.862670000000     0          
H1193    H      0.770540000000     0.888360000000     0.830720000000     0          
H1194    H      0.726130000000     0.787610000000     0.861130000000     0          
H1195    H      0.677130000000     0.816750000000     0.890240000000     0          
H1196    H      0.918770000000     0.918770000000     0.705790000000     0          
H1197    H      0.952380000000     0.952380000000     0.657810000000     0          
H1198    H      0.862670000000     0.862670000000     0.623620000000     0          
H1199    H      0.894610000000     0.894610000000     0.578960000000     0          
H1200    H      0.623620000000     0.862670000000     0.862670000000     0          
H1201    H      0.705790000000     0.918770000000     0.918770000000     0          
H1202    H      0.657810000000     0.952380000000     0.952380000000     0          
H1203    H      0.578960000000     0.894610000000     0.894610000000     0          
H1204    H      0.111640000000     0.830720000000     0.770540000000     0          
H1205    H      0.081890000000     0.862670000000     0.722760000000     0          
H1206    H      0.212390000000     0.861130000000     0.726130000000     0          
H1207    H      0.183250000000     0.890240000000     0.677130000000     0          
H1208    H      0.229460000000     0.888360000000     0.830720000000     0          
H1209    H      0.277240000000     0.918110000000     0.862670000000     0          
H1210    H      0.273870000000     0.787610000000     0.861130000000     0          
H1211    H      0.376380000000     0.862670000000     0.862670000000     0          
H1212    H      0.421040000000     0.894610000000     0.894610000000     0          
H1213    H      0.342190000000     0.952380000000     0.952380000000     0          
H1214    H      0.294210000000     0.918770000000     0.918770000000     0          
H1215    H      0.322870000000     0.816750000000     0.890240000000     0          
H1216    H      0.219290000000     0.780460000000     0.860290000000     0          
H1217    H      0.219540000000     0.860290000000     0.780710000000     0          
H1218    H      0.139710000000     0.780460000000     0.780710000000     0          
H1219    H      0.081230000000     0.918770000000     0.705790000000     0          
H1220    H      0.047620000000     0.952380000000     0.657810000000     0          
H1221    H      0.105390000000     0.894610000000     0.578960000000     0          
H1222    H      0.137330000000     0.862670000000     0.623620000000     0          
H1223    H      0.342190000000     0.047620000000     0.952380000000     0          
H1224    H      0.294210000000     0.081230000000     0.918770000000     0          
H1225    H      0.421040000000     0.105390000000     0.894610000000     0          
H1226    H      0.376380000000     0.137330000000     0.862670000000     0          
H1227    H      0.322870000000     0.183250000000     0.890240000000     0          
H1228    H      0.277240000000     0.081890000000     0.862670000000     0          
H1229    H      0.229460000000     0.111640000000     0.830720000000     0          
H1230    H      0.273870000000     0.212390000000     0.861130000000     0          
H1231    H      0.705790000000     0.081230000000     0.918770000000     0          
H1232    H      0.657810000000     0.047620000000     0.952380000000     0          
H1233    H      0.623620000000     0.137330000000     0.862670000000     0          
H1234    H      0.578960000000     0.105390000000     0.894610000000     0          
H1235    H      0.722760000000     0.137330000000     0.918110000000     0          
H1236    H      0.770540000000     0.169280000000     0.888360000000     0          
H1237    H      0.726130000000     0.138870000000     0.787610000000     0          
H1238    H      0.677130000000     0.109760000000     0.816750000000     0          
H1239    H      0.862670000000     0.277240000000     0.918110000000     0          
H1240    H      0.830720000000     0.229460000000     0.888360000000     0          
H1241    H      0.890240000000     0.322870000000     0.816750000000     0          
H1242    H      0.861130000000     0.273870000000     0.787610000000     0          
H1243    H      0.860290000000     0.219540000000     0.780710000000     0          
H1244    H      0.780710000000     0.219540000000     0.860290000000     0          
H1245    H      0.780460000000     0.139710000000     0.780710000000     0          
H1246    H      0.830720000000     0.111640000000     0.770540000000     0          
H1247    H      0.861130000000     0.212390000000     0.726130000000     0          
H1248    H      0.890240000000     0.183250000000     0.677130000000     0          
H1249    H      0.862670000000     0.081890000000     0.722760000000     0          
H1250    H      0.047620000000     0.342190000000     0.952380000000     0          
H1251    H      0.105390000000     0.421040000000     0.894610000000     0          
H1252    H      0.137330000000     0.376380000000     0.862670000000     0          
H1253    H      0.081230000000     0.294210000000     0.918770000000     0          
H1254    H      0.952380000000     0.342190000000     0.952380000000     0          
H1255    H      0.894610000000     0.421040000000     0.894610000000     0          
H1256    H      0.862670000000     0.376380000000     0.862670000000     0          
H1257    H      0.918770000000     0.294210000000     0.918770000000     0          
H1258    H      0.109760000000     0.322870000000     0.816750000000     0          
H1259    H      0.138870000000     0.273870000000     0.787610000000     0          
H1260    H      0.169280000000     0.229460000000     0.888360000000     0          
H1261    H      0.137330000000     0.277240000000     0.918110000000     0          
H1262    H      0.169280000000     0.770540000000     0.111640000000     0          
H1263    H      0.137330000000     0.722760000000     0.081890000000     0          
H1264    H      0.138870000000     0.726130000000     0.212390000000     0          
H1265    H      0.109760000000     0.677130000000     0.183250000000     0          
H1266    H      0.137330000000     0.623620000000     0.137330000000     0          
H1267    H      0.081230000000     0.705790000000     0.081230000000     0          
H1268    H      0.047620000000     0.657810000000     0.047620000000     0          
H1269    H      0.105390000000     0.578960000000     0.105390000000     0          
H1270    H      0.139710000000     0.780460000000     0.219290000000     0          
H1271    H      0.219540000000     0.860290000000     0.219290000000     0          
H1272    H      0.219540000000     0.780710000000     0.139710000000     0          
H1273    H      0.229460000000     0.830720000000     0.111640000000     0          
H1274    H      0.277240000000     0.862670000000     0.081890000000     0          
H1275    H      0.322870000000     0.890240000000     0.183250000000     0          
H1276    H      0.273870000000     0.861130000000     0.212390000000     0          
H1277    H      0.376380000000     0.862670000000     0.137330000000     0          
H1278    H      0.421040000000     0.894610000000     0.105390000000     0          
H1279    H      0.342190000000     0.952380000000     0.047620000000     0          
H1280    H      0.294210000000     0.918770000000     0.081230000000     0          
H1281    H      0.183250000000     0.890240000000     0.322870000000     0          
H1282    H      0.212390000000     0.861130000000     0.273870000000     0          
H1283    H      0.081890000000     0.862670000000     0.277240000000     0          
H1284    H      0.111640000000     0.830720000000     0.229460000000     0          
H1285    H      0.657810000000     0.952380000000     0.047620000000     0          
H1286    H      0.705790000000     0.918770000000     0.081230000000     0          
H1287    H      0.578960000000     0.894610000000     0.105390000000     0          
H1288    H      0.623620000000     0.862670000000     0.137330000000     0          
H1289    H      0.722760000000     0.918110000000     0.137330000000     0          
H1290    H      0.770540000000     0.888360000000     0.169280000000     0          
H1291    H      0.677130000000     0.816750000000     0.109760000000     0          
H1292    H      0.726130000000     0.787610000000     0.138870000000     0          
H1293    H      0.780460000000     0.860290000000     0.219290000000     0          
H1294    H      0.860290000000     0.780460000000     0.219290000000     0          
H1295    H      0.780710000000     0.780460000000     0.139710000000     0          
H1296    H      0.830720000000     0.770540000000     0.111640000000     0          
H1297    H      0.862670000000     0.722760000000     0.081890000000     0          
H1298    H      0.890240000000     0.677130000000     0.183250000000     0          
H1299    H      0.861130000000     0.726130000000     0.212390000000     0          
H1300    H      0.861130000000     0.787610000000     0.273870000000     0          
H1301    H      0.890240000000     0.816750000000     0.322870000000     0          
H1302    H      0.830720000000     0.888360000000     0.229460000000     0          
H1303    H      0.862670000000     0.918110000000     0.277240000000     0          
H1304    H      0.918770000000     0.918770000000     0.294210000000     0          
H1305    H      0.952380000000     0.952380000000     0.342190000000     0          
H1306    H      0.894610000000     0.894610000000     0.421040000000     0          
H1307    H      0.862670000000     0.862670000000     0.376380000000     0          
H1308    H      0.894610000000     0.578960000000     0.105390000000     0          
H1309    H      0.862670000000     0.623620000000     0.137330000000     0          
H1310    H      0.918770000000     0.705790000000     0.081230000000     0          
H1311    H      0.952380000000     0.657810000000     0.047620000000     0          
H1312    H      0.657810000000     0.047620000000     0.047620000000     0          
H1313    H      0.578960000000     0.105390000000     0.105390000000     0          
H1314    H      0.623620000000     0.137330000000     0.137330000000     0          
H1315    H      0.705790000000     0.081230000000     0.081230000000     0          
H1316    H      0.722760000000     0.081890000000     0.137330000000     0          
H1317    H      0.677130000000     0.183250000000     0.109760000000     0          
H1318    H      0.726130000000     0.212390000000     0.138870000000     0          
H1319    H      0.770540000000     0.111640000000     0.169280000000     0          
H1320    H      0.294210000000     0.081230000000     0.081230000000     0          
H1321    H      0.342190000000     0.047620000000     0.047620000000     0          
H1322    H      0.421040000000     0.105390000000     0.105390000000     0          
H1323    H      0.376380000000     0.137330000000     0.137330000000     0          
H1324    H      0.780460000000     0.139710000000     0.219290000000     0          
H1325    H      0.780460000000     0.219290000000     0.139710000000     0          
H1326    H      0.860290000000     0.219540000000     0.219290000000     0          
H1327    H      0.918770000000     0.294210000000     0.081230000000     0          
H1328    H      0.952380000000     0.342190000000     0.047620000000     0          
H1329    H      0.894610000000     0.421040000000     0.105390000000     0          
H1330    H      0.862670000000     0.376380000000     0.137330000000     0          
H1331    H      0.918110000000     0.277240000000     0.137330000000     0          
H1332    H      0.888360000000     0.229460000000     0.169280000000     0          
H1333    H      0.787610000000     0.273870000000     0.138870000000     0          
H1334    H      0.816750000000     0.322870000000     0.109760000000     0          
H1335    H      0.277240000000     0.081890000000     0.137330000000     0          
H1336    H      0.229460000000     0.111640000000     0.169280000000     0          
H1337    H      0.322870000000     0.183250000000     0.109760000000     0          
H1338    H      0.273870000000     0.212390000000     0.138870000000     0          
H1339    H      0.219290000000     0.219540000000     0.139710000000     0          
H1340    H      0.139710000000     0.219540000000     0.219290000000     0          
H1341    H      0.219540000000     0.139710000000     0.219290000000     0          
H1342    H      0.212390000000     0.138870000000     0.273870000000     0          
H1343    H      0.183250000000     0.109760000000     0.322870000000     0          
H1344    H      0.081890000000     0.137330000000     0.277240000000     0          
H1345    H      0.111640000000     0.169280000000     0.229460000000     0          
H1346    H      0.047620000000     0.047620000000     0.342190000000     0          
H1347    H      0.081230000000     0.081230000000     0.294210000000     0          
H1348    H      0.105390000000     0.105390000000     0.421040000000     0          
H1349    H      0.137330000000     0.137330000000     0.376380000000     0          
H1350    H      0.081230000000     0.294210000000     0.081230000000     0          
H1351    H      0.047620000000     0.342190000000     0.047620000000     0          
H1352    H      0.105390000000     0.421040000000     0.105390000000     0          
H1353    H      0.137330000000     0.376380000000     0.137330000000     0          
H1354    H      0.138870000000     0.273870000000     0.212390000000     0          
H1355    H      0.109760000000     0.322870000000     0.183250000000     0          
H1356    H      0.169280000000     0.229460000000     0.111640000000     0          
H1357    H      0.137330000000     0.277240000000     0.081890000000     0          
H1358    H      0.105390000000     0.105390000000     0.578960000000     0          
H1359    H      0.047620000000     0.047620000000     0.657810000000     0          
H1360    H      0.081230000000     0.081230000000     0.705790000000     0          
H1361    H      0.137330000000     0.137330000000     0.623620000000     0          
H1362    H      0.183250000000     0.109760000000     0.677130000000     0          
H1363    H      0.081890000000     0.137330000000     0.722760000000     0          
H1364    H      0.111640000000     0.169280000000     0.770540000000     0          
H1365    H      0.212390000000     0.138870000000     0.726130000000     0          
H1366    H      0.219540000000     0.139710000000     0.780710000000     0          
H1367    H      0.139710000000     0.219540000000     0.780710000000     0          
H1368    H      0.219540000000     0.219290000000     0.860290000000     0          
H1369    H      0.918770000000     0.081230000000     0.705790000000     0          
H1370    H      0.952380000000     0.047620000000     0.657810000000     0          
H1371    H      0.894610000000     0.105390000000     0.578960000000     0          
H1372    H      0.862670000000     0.137330000000     0.623620000000     0          
H1373    H      0.888360000000     0.169280000000     0.229460000000     0          
H1374    H      0.918110000000     0.137330000000     0.277240000000     0          
H1375    H      0.787610000000     0.138870000000     0.273870000000     0          
H1376    H      0.816750000000     0.109760000000     0.322870000000     0          
H1377    H      0.918770000000     0.081230000000     0.294210000000     0          
H1378    H      0.952380000000     0.047620000000     0.342190000000     0          
H1379    H      0.862670000000     0.137330000000     0.376380000000     0          
H1380    H      0.894610000000     0.105390000000     0.421040000000     0          
H1381    H      0.137330000000     0.862670000000     0.376380000000     0          
H1382    H      0.105390000000     0.894610000000     0.421040000000     0          
H1383    H      0.081230000000     0.918770000000     0.294210000000     0          
H1384    H      0.047620000000     0.952380000000     0.342190000000     0          
H1385    H      0.239070000000     0.363000000000     0.395490000000     0          
H1386    H      0.256240000000     0.390830000000     0.315530000000     0          
H1387    H      0.570510000000     0.000000000000     0.603180000000     0          
H1388    H      0.486750000000     0.000000000000     0.603180000000     0          
H1389    H      0.486750000000     0.000000000000     0.396820000000     0          
H1390    H      0.570510000000     0.000000000000     0.396820000000     0          
H1391    H      0.631810000000     0.541880000000     0.000000000000     0          
H1392    H      0.631810000000     0.458120000000     0.000000000000     0          
H1393    H      0.425450000000     0.458120000000     0.000000000000     0          
H1394    H      0.425450000000     0.541880000000     0.000000000000     0          
H1395    H      0.028630000000     0.603180000000     0.541880000000     0          
H1396    H      0.028630000000     0.603180000000     0.458120000000     0          
H1397    H      0.028630000000     0.396820000000     0.458120000000     0          
H1398    H      0.028630000000     0.396820000000     0.541880000000     0          
H1399    H      0.028630000000     0.541880000000     0.396820000000     0          
H1400    H      0.028630000000     0.458120000000     0.396820000000     0          
H1401    H      0.028630000000     0.458120000000     0.603180000000     0          
H1402    H      0.028630000000     0.541880000000     0.603180000000     0          
H1403    H      0.570510000000     0.603180000000     0.000000000000     0          
H1404    H      0.486750000000     0.603180000000     0.000000000000     0          
H1405    H      0.486750000000     0.396820000000     0.000000000000     0          
H1406    H      0.570510000000     0.396820000000     0.000000000000     0          
H1407    H      0.631810000000     0.000000000000     0.458120000000     0          
H1408    H      0.631810000000     0.000000000000     0.541880000000     0          
H1409    H      0.425450000000     0.000000000000     0.541880000000     0          
H1410    H      0.425450000000     0.000000000000     0.458120000000     0          
H1411    H      0.919230000000     0.041500000000     0.500000000000     0          
H1412    H      0.138030000000     0.958500000000     0.500000000000     0          
H1413    H      0.138030000000     0.041500000000     0.500000000000     0          
H1414    H      0.919230000000     0.958500000000     0.500000000000     0          
H1415    H      0.528630000000     0.890600000000     0.041500000000     0          
H1416    H      0.528630000000     0.109400000000     0.958500000000     0          
H1417    H      0.528630000000     0.109400000000     0.041500000000     0          
H1418    H      0.528630000000     0.890600000000     0.958500000000     0          
H1419    H      0.070130000000     0.500000000000     0.890600000000     0          
H1420    H      0.987130000000     0.500000000000     0.109400000000     0          
H1421    H      0.070130000000     0.500000000000     0.109400000000     0          
H1422    H      0.987130000000     0.500000000000     0.890600000000     0          
H1423    H      0.070130000000     0.890600000000     0.500000000000     0          
H1424    H      0.987130000000     0.109400000000     0.500000000000     0          
H1425    H      0.070130000000     0.109400000000     0.500000000000     0          
H1426    H      0.987130000000     0.890600000000     0.500000000000     0          
H1427    H      0.919230000000     0.500000000000     0.958500000000     0          
H1428    H      0.138030000000     0.500000000000     0.041500000000     0          
H1429    H      0.138030000000     0.500000000000     0.958500000000     0          
H1430    H      0.919230000000     0.500000000000     0.041500000000     0          
H1431    H      0.528630000000     0.041500000000     0.109400000000     0          
H1432    H      0.528630000000     0.958500000000     0.890600000000     0          
H1433    H      0.528630000000     0.041500000000     0.890600000000     0          
H1434    H      0.528630000000     0.958500000000     0.109400000000     0          
H1435    H      0.039900000000     0.070820000000     0.454680000000     0          
H1436    H      0.441740000000     0.084240000000     0.084240000000     0          
H1437    H      0.039900000000     0.454680000000     0.070820000000     0          
H1438    H      0.041050000000     0.941180000000     0.457120000000     0          
H1439    H      0.960100000000     0.070820000000     0.454680000000     0          
H1440    H      0.091030000000     0.073260000000     0.557320000000     0          
H1441    H      0.091030000000     0.557320000000     0.073260000000     0          
H1442    H      0.041050000000     0.457120000000     0.941180000000     0          
H1443    H      0.960100000000     0.454680000000     0.070820000000     0          
H1444    H      0.558260000000     0.084240000000     0.084240000000     0          
H1445    H      0.449900000000     0.085130000000     0.953050000000     0          
H1446    H      0.449900000000     0.953050000000     0.085130000000     0          
H1447    H      0.908970000000     0.073260000000     0.557320000000     0          
H1448    H      0.550100000000     0.085130000000     0.953050000000     0          
H1449    H      0.961720000000     0.413320000000     0.987300000000     0          
H1450    H      0.051390000000     0.981500000000     0.617680000000     0          
H1451    H      0.458050000000     0.952160000000     0.952160000000     0          
H1452    H      0.092170000000     0.554890000000     0.938750000000     0          
H1453    H      0.961720000000     0.987300000000     0.413320000000     0          
H1454    H      0.550100000000     0.953050000000     0.085130000000     0          
H1455    H      0.908970000000     0.557320000000     0.073260000000     0          
H1456    H      0.907830000000     0.938750000000     0.554890000000     0          
H1457    H      0.907830000000     0.554890000000     0.938750000000     0          
H1458    H      0.580290000000     0.976460000000     0.976460000000     0          


