data_UFORIT

_audit_creation_method RASPA-1.0
_audit_creation_date 2020-11-2
_audit_author_name 'Rocio Bueno-Perez'

_cell_length_a    41.367
_cell_length_b    41.367
_cell_length_c    41.367
_cell_angle_alpha 90
_cell_angle_beta  90
_cell_angle_gamma 90
_cell_volume      70788.4

_symmetry_cell_setting          triclinic
_symmetry_space_group_name_Hall 'P 1'
_symmetry_space_group_name_H-M  'P 1'
_symmetry_Int_Tables_number     1

_symmetry_equiv_pos_as_xyz 'x,y,z'

loop_
_atom_site_label
_atom_site_type_symbol
_atom_site_fract_x
_atom_site_fract_y
_atom_site_fract_z
_atom_site_charge
O1       O      0.247410000000     0.470390000000     0.093720000000     0          
O2       O      0.062840000000     0.706800000000     0.437780000000     0          
O3       O      0.031510000000     0.662820000000     0.467070000000     0          
C4       C      0.053200000000     0.677900000000     0.443000000000     0          
C5       C      0.224800000000     0.528100000000     0.153600000000     0          
H6       H      0.228780000000     0.547830000000     0.143520000000     0          
C7       C      0.147900000000     0.528400000000     0.301600000000     0          
H8       H      0.153520000000     0.547750000000     0.291570000000     0          
C9       C      0.211100000000     0.529200000000     0.185200000000     0          
H10      H      0.206820000000     0.548940000000     0.195020000000     0          
C11      C      0.129900000000     0.530100000000     0.330900000000     0          
C12      C      0.118600000000     0.559700000000     0.348800000000     0          
C13      C      0.108700000000     0.582000000000     0.363400000000     0          
C14      C      0.074200000000     0.595330000000     0.409200000000     0          
H15      H      0.070340000000     0.573440000000     0.412600000000     0          
C16      C      0.094000000000     0.605100000000     0.383900000000     0          
C17      C      0.099810000000     0.637900000000     0.378800000000     0          
H18      H      0.113020000000     0.644420000000     0.361840000000     0          
C19      C      0.085900000000     0.660730000000     0.399100000000     0          
H20      H      0.089820000000     0.682610000000     0.395730000000     0          
C21      C      0.066200000000     0.650900000000     0.424500000000     0          
C22      C      0.060350000000     0.618200000000     0.429530000000     0          
H23      H      0.047140000000     0.611630000000     0.446500000000     0          
O24      O      0.752590000000     0.529610000000     0.093720000000     0          
O25      O      0.937160000000     0.293200000000     0.437780000000     0          
O26      O      0.968490000000     0.337180000000     0.467070000000     0          
C27      C      0.946800000000     0.322100000000     0.443000000000     0          
C28      C      0.775200000000     0.471900000000     0.153600000000     0          
H29      H      0.771220000000     0.452170000000     0.143520000000     0          
C30      C      0.852100000000     0.471600000000     0.301600000000     0          
H31      H      0.846480000000     0.452250000000     0.291570000000     0          
C32      C      0.788900000000     0.470800000000     0.185200000000     0          
H33      H      0.793180000000     0.451060000000     0.195020000000     0          
C34      C      0.870100000000     0.469900000000     0.330900000000     0          
C35      C      0.881400000000     0.440300000000     0.348800000000     0          
C36      C      0.891300000000     0.418000000000     0.363400000000     0          
C37      C      0.925800000000     0.404670000000     0.409200000000     0          
H38      H      0.929660000000     0.426560000000     0.412600000000     0          
C39      C      0.906000000000     0.394900000000     0.383900000000     0          
C40      C      0.900190000000     0.362100000000     0.378800000000     0          
H41      H      0.886980000000     0.355580000000     0.361840000000     0          
C42      C      0.914100000000     0.339270000000     0.399100000000     0          
H43      H      0.910180000000     0.317390000000     0.395730000000     0          
C44      C      0.933800000000     0.349100000000     0.424500000000     0          
C45      C      0.939650000000     0.381800000000     0.429530000000     0          
H46      H      0.952860000000     0.388370000000     0.446500000000     0          
O47      O      0.752590000000     0.470390000000     0.906280000000     0          
O48      O      0.937160000000     0.706800000000     0.562220000000     0          
O49      O      0.968490000000     0.662820000000     0.532930000000     0          
C50      C      0.946800000000     0.677900000000     0.557000000000     0          
C51      C      0.775200000000     0.528100000000     0.846400000000     0          
H52      H      0.771220000000     0.547830000000     0.856480000000     0          
C53      C      0.852100000000     0.528400000000     0.698400000000     0          
H54      H      0.846480000000     0.547750000000     0.708430000000     0          
C55      C      0.788900000000     0.529200000000     0.814800000000     0          
H56      H      0.793180000000     0.548940000000     0.804980000000     0          
C57      C      0.870100000000     0.530100000000     0.669100000000     0          
C58      C      0.881400000000     0.559700000000     0.651200000000     0          
C59      C      0.891300000000     0.582000000000     0.636600000000     0          
C60      C      0.925800000000     0.595330000000     0.590800000000     0          
H61      H      0.929660000000     0.573440000000     0.587400000000     0          
C62      C      0.906000000000     0.605100000000     0.616100000000     0          
C63      C      0.900190000000     0.637900000000     0.621200000000     0          
H64      H      0.886980000000     0.644420000000     0.638160000000     0          
C65      C      0.914100000000     0.660730000000     0.600900000000     0          
H66      H      0.910180000000     0.682610000000     0.604270000000     0          
C67      C      0.933800000000     0.650900000000     0.575500000000     0          
C68      C      0.939650000000     0.618200000000     0.570470000000     0          
H69      H      0.952860000000     0.611630000000     0.553500000000     0          
O70      O      0.247410000000     0.529610000000     0.906280000000     0          
O71      O      0.062840000000     0.293200000000     0.562220000000     0          
O72      O      0.031510000000     0.337180000000     0.532930000000     0          
C73      C      0.053200000000     0.322100000000     0.557000000000     0          
C74      C      0.224800000000     0.471900000000     0.846400000000     0          
H75      H      0.228780000000     0.452170000000     0.856480000000     0          
C76      C      0.147900000000     0.471600000000     0.698400000000     0          
H77      H      0.153520000000     0.452250000000     0.708430000000     0          
C78      C      0.211100000000     0.470800000000     0.814800000000     0          
H79      H      0.206820000000     0.451060000000     0.804980000000     0          
C80      C      0.129900000000     0.469900000000     0.669100000000     0          
C81      C      0.118600000000     0.440300000000     0.651200000000     0          
C82      C      0.108700000000     0.418000000000     0.636600000000     0          
C83      C      0.074200000000     0.404670000000     0.590800000000     0          
H84      H      0.070340000000     0.426560000000     0.587400000000     0          
C85      C      0.094000000000     0.394900000000     0.616100000000     0          
C86      C      0.099810000000     0.362100000000     0.621200000000     0          
H87      H      0.113020000000     0.355580000000     0.638160000000     0          
C88      C      0.085900000000     0.339270000000     0.600900000000     0          
H89      H      0.089820000000     0.317390000000     0.604270000000     0          
C90      C      0.066200000000     0.349100000000     0.575500000000     0          
C91      C      0.060350000000     0.381800000000     0.570470000000     0          
H92      H      0.047140000000     0.388370000000     0.553500000000     0          
O93      O      0.093720000000     0.247410000000     0.470390000000     0          
O94      O      0.437780000000     0.062840000000     0.706800000000     0          
O95      O      0.467070000000     0.031510000000     0.662820000000     0          
C96      C      0.443000000000     0.053200000000     0.677900000000     0          
C97      C      0.153600000000     0.224800000000     0.528100000000     0          
H98      H      0.143520000000     0.228780000000     0.547830000000     0          
C99      C      0.301600000000     0.147900000000     0.528400000000     0          
H100     H      0.291570000000     0.153520000000     0.547750000000     0          
C101     C      0.185200000000     0.211100000000     0.529200000000     0          
H102     H      0.195020000000     0.206820000000     0.548940000000     0          
C103     C      0.330900000000     0.129900000000     0.530100000000     0          
C104     C      0.348800000000     0.118600000000     0.559700000000     0          
C105     C      0.363400000000     0.108700000000     0.582000000000     0          
C106     C      0.409200000000     0.074200000000     0.595330000000     0          
H107     H      0.412600000000     0.070340000000     0.573440000000     0          
C108     C      0.383900000000     0.094000000000     0.605100000000     0          
C109     C      0.378800000000     0.099810000000     0.637900000000     0          
H110     H      0.361840000000     0.113020000000     0.644420000000     0          
C111     C      0.399100000000     0.085900000000     0.660730000000     0          
H112     H      0.395730000000     0.089820000000     0.682610000000     0          
C113     C      0.424500000000     0.066200000000     0.650900000000     0          
C114     C      0.429530000000     0.060350000000     0.618200000000     0          
H115     H      0.446500000000     0.047140000000     0.611630000000     0          
O116     O      0.093720000000     0.752590000000     0.529610000000     0          
O117     O      0.437780000000     0.937160000000     0.293200000000     0          
O118     O      0.467070000000     0.968490000000     0.337180000000     0          
C119     C      0.443000000000     0.946800000000     0.322100000000     0          
C120     C      0.153600000000     0.775200000000     0.471900000000     0          
H121     H      0.143520000000     0.771220000000     0.452170000000     0          
C122     C      0.301600000000     0.852100000000     0.471600000000     0          
H123     H      0.291570000000     0.846480000000     0.452250000000     0          
C124     C      0.185200000000     0.788900000000     0.470800000000     0          
H125     H      0.195020000000     0.793180000000     0.451060000000     0          
C126     C      0.330900000000     0.870100000000     0.469900000000     0          
C127     C      0.348800000000     0.881400000000     0.440300000000     0          
C128     C      0.363400000000     0.891300000000     0.418000000000     0          
C129     C      0.409200000000     0.925800000000     0.404670000000     0          
H130     H      0.412600000000     0.929660000000     0.426560000000     0          
C131     C      0.383900000000     0.906000000000     0.394900000000     0          
C132     C      0.378800000000     0.900190000000     0.362100000000     0          
H133     H      0.361840000000     0.886980000000     0.355580000000     0          
C134     C      0.399100000000     0.914100000000     0.339270000000     0          
H135     H      0.395730000000     0.910180000000     0.317390000000     0          
C136     C      0.424500000000     0.933800000000     0.349100000000     0          
C137     C      0.429530000000     0.939650000000     0.381800000000     0          
H138     H      0.446500000000     0.952860000000     0.388370000000     0          
O139     O      0.906280000000     0.752590000000     0.470390000000     0          
O140     O      0.562220000000     0.937160000000     0.706800000000     0          
O141     O      0.532930000000     0.968490000000     0.662820000000     0          
C142     C      0.557000000000     0.946800000000     0.677900000000     0          
C143     C      0.846400000000     0.775200000000     0.528100000000     0          
H144     H      0.856480000000     0.771220000000     0.547830000000     0          
C145     C      0.698400000000     0.852100000000     0.528400000000     0          
H146     H      0.708430000000     0.846480000000     0.547750000000     0          
C147     C      0.814800000000     0.788900000000     0.529200000000     0          
H148     H      0.804980000000     0.793180000000     0.548940000000     0          
C149     C      0.669100000000     0.870100000000     0.530100000000     0          
C150     C      0.651200000000     0.881400000000     0.559700000000     0          
C151     C      0.636600000000     0.891300000000     0.582000000000     0          
C152     C      0.590800000000     0.925800000000     0.595330000000     0          
H153     H      0.587400000000     0.929660000000     0.573440000000     0          
C154     C      0.616100000000     0.906000000000     0.605100000000     0          
C155     C      0.621200000000     0.900190000000     0.637900000000     0          
H156     H      0.638160000000     0.886980000000     0.644420000000     0          
C157     C      0.600900000000     0.914100000000     0.660730000000     0          
H158     H      0.604270000000     0.910180000000     0.682610000000     0          
C159     C      0.575500000000     0.933800000000     0.650900000000     0          
C160     C      0.570470000000     0.939650000000     0.618200000000     0          
H161     H      0.553500000000     0.952860000000     0.611630000000     0          
O162     O      0.906280000000     0.247410000000     0.529610000000     0          
O163     O      0.562220000000     0.062840000000     0.293200000000     0          
O164     O      0.532930000000     0.031510000000     0.337180000000     0          
C165     C      0.557000000000     0.053200000000     0.322100000000     0          
C166     C      0.846400000000     0.224800000000     0.471900000000     0          
H167     H      0.856480000000     0.228780000000     0.452170000000     0          
C168     C      0.698400000000     0.147900000000     0.471600000000     0          
H169     H      0.708430000000     0.153520000000     0.452250000000     0          
C170     C      0.814800000000     0.211100000000     0.470800000000     0          
H171     H      0.804980000000     0.206820000000     0.451060000000     0          
C172     C      0.669100000000     0.129900000000     0.469900000000     0          
C173     C      0.651200000000     0.118600000000     0.440300000000     0          
C174     C      0.636600000000     0.108700000000     0.418000000000     0          
C175     C      0.590800000000     0.074200000000     0.404670000000     0          
H176     H      0.587400000000     0.070340000000     0.426560000000     0          
C177     C      0.616100000000     0.094000000000     0.394900000000     0          
C178     C      0.621200000000     0.099810000000     0.362100000000     0          
H179     H      0.638160000000     0.113020000000     0.355580000000     0          
C180     C      0.600900000000     0.085900000000     0.339270000000     0          
H181     H      0.604270000000     0.089820000000     0.317390000000     0          
C182     C      0.575500000000     0.066200000000     0.349100000000     0          
C183     C      0.570470000000     0.060350000000     0.381800000000     0          
H184     H      0.553500000000     0.047140000000     0.388370000000     0          
O185     O      0.470390000000     0.093720000000     0.247410000000     0          
O186     O      0.706800000000     0.437780000000     0.062840000000     0          
O187     O      0.662820000000     0.467070000000     0.031510000000     0          
C188     C      0.677900000000     0.443000000000     0.053200000000     0          
C189     C      0.528100000000     0.153600000000     0.224800000000     0          
H190     H      0.547830000000     0.143520000000     0.228780000000     0          
C191     C      0.528400000000     0.301600000000     0.147900000000     0          
H192     H      0.547750000000     0.291570000000     0.153520000000     0          
C193     C      0.529200000000     0.185200000000     0.211100000000     0          
H194     H      0.548940000000     0.195020000000     0.206820000000     0          
C195     C      0.530100000000     0.330900000000     0.129900000000     0          
C196     C      0.559700000000     0.348800000000     0.118600000000     0          
C197     C      0.582000000000     0.363400000000     0.108700000000     0          
C198     C      0.595330000000     0.409200000000     0.074200000000     0          
H199     H      0.573440000000     0.412600000000     0.070340000000     0          
C200     C      0.605100000000     0.383900000000     0.094000000000     0          
C201     C      0.637900000000     0.378800000000     0.099810000000     0          
H202     H      0.644420000000     0.361840000000     0.113020000000     0          
C203     C      0.660730000000     0.399100000000     0.085900000000     0          
H204     H      0.682610000000     0.395730000000     0.089820000000     0          
C205     C      0.650900000000     0.424500000000     0.066200000000     0          
C206     C      0.618200000000     0.429530000000     0.060350000000     0          
H207     H      0.611630000000     0.446500000000     0.047140000000     0          
O208     O      0.529610000000     0.093720000000     0.752590000000     0          
O209     O      0.293200000000     0.437780000000     0.937160000000     0          
O210     O      0.337180000000     0.467070000000     0.968490000000     0          
C211     C      0.322100000000     0.443000000000     0.946800000000     0          
C212     C      0.471900000000     0.153600000000     0.775200000000     0          
H213     H      0.452170000000     0.143520000000     0.771220000000     0          
C214     C      0.471600000000     0.301600000000     0.852100000000     0          
H215     H      0.452250000000     0.291570000000     0.846480000000     0          
C216     C      0.470800000000     0.185200000000     0.788900000000     0          
H217     H      0.451060000000     0.195020000000     0.793180000000     0          
C218     C      0.469900000000     0.330900000000     0.870100000000     0          
C219     C      0.440300000000     0.348800000000     0.881400000000     0          
C220     C      0.418000000000     0.363400000000     0.891300000000     0          
C221     C      0.404670000000     0.409200000000     0.925800000000     0          
H222     H      0.426560000000     0.412600000000     0.929660000000     0          
C223     C      0.394900000000     0.383900000000     0.906000000000     0          
C224     C      0.362100000000     0.378800000000     0.900190000000     0          
H225     H      0.355580000000     0.361840000000     0.886980000000     0          
C226     C      0.339270000000     0.399100000000     0.914100000000     0          
H227     H      0.317390000000     0.395730000000     0.910180000000     0          
C228     C      0.349100000000     0.424500000000     0.933800000000     0          
C229     C      0.381800000000     0.429530000000     0.939650000000     0          
H230     H      0.388370000000     0.446500000000     0.952860000000     0          
O231     O      0.470390000000     0.906280000000     0.752590000000     0          
O232     O      0.706800000000     0.562220000000     0.937160000000     0          
O233     O      0.662820000000     0.532930000000     0.968490000000     0          
C234     C      0.677900000000     0.557000000000     0.946800000000     0          
C235     C      0.528100000000     0.846400000000     0.775200000000     0          
H236     H      0.547830000000     0.856480000000     0.771220000000     0          
C237     C      0.528400000000     0.698400000000     0.852100000000     0          
H238     H      0.547750000000     0.708430000000     0.846480000000     0          
C239     C      0.529200000000     0.814800000000     0.788900000000     0          
H240     H      0.548940000000     0.804980000000     0.793180000000     0          
C241     C      0.530100000000     0.669100000000     0.870100000000     0          
C242     C      0.559700000000     0.651200000000     0.881400000000     0          
C243     C      0.582000000000     0.636600000000     0.891300000000     0          
C244     C      0.595330000000     0.590800000000     0.925800000000     0          
H245     H      0.573440000000     0.587400000000     0.929660000000     0          
C246     C      0.605100000000     0.616100000000     0.906000000000     0          
C247     C      0.637900000000     0.621200000000     0.900190000000     0          
H248     H      0.644420000000     0.638160000000     0.886980000000     0          
C249     C      0.660730000000     0.600900000000     0.914100000000     0          
H250     H      0.682610000000     0.604270000000     0.910180000000     0          
C251     C      0.650900000000     0.575500000000     0.933800000000     0          
C252     C      0.618200000000     0.570470000000     0.939650000000     0          
H253     H      0.611630000000     0.553500000000     0.952860000000     0          
O254     O      0.529610000000     0.906280000000     0.247410000000     0          
O255     O      0.293200000000     0.562220000000     0.062840000000     0          
O256     O      0.337180000000     0.532930000000     0.031510000000     0          
C257     C      0.322100000000     0.557000000000     0.053200000000     0          
C258     C      0.471900000000     0.846400000000     0.224800000000     0          
H259     H      0.452170000000     0.856480000000     0.228780000000     0          
C260     C      0.471600000000     0.698400000000     0.147900000000     0          
H261     H      0.452250000000     0.708430000000     0.153520000000     0          
C262     C      0.470800000000     0.814800000000     0.211100000000     0          
H263     H      0.451060000000     0.804980000000     0.206820000000     0          
C264     C      0.469900000000     0.669100000000     0.129900000000     0          
C265     C      0.440300000000     0.651200000000     0.118600000000     0          
C266     C      0.418000000000     0.636600000000     0.108700000000     0          
C267     C      0.404670000000     0.590800000000     0.074200000000     0          
H268     H      0.426560000000     0.587400000000     0.070340000000     0          
C269     C      0.394900000000     0.616100000000     0.094000000000     0          
C270     C      0.362100000000     0.621200000000     0.099810000000     0          
H271     H      0.355580000000     0.638160000000     0.113020000000     0          
C272     C      0.339270000000     0.600900000000     0.085900000000     0          
H273     H      0.317390000000     0.604270000000     0.089820000000     0          
C274     C      0.349100000000     0.575500000000     0.066200000000     0          
C275     C      0.381800000000     0.570470000000     0.060350000000     0          
H276     H      0.388370000000     0.553500000000     0.047140000000     0          
O277     O      0.970390000000     0.747410000000     0.406280000000     0          
O278     O      0.206800000000     0.562840000000     0.062220000000     0          
O279     O      0.162820000000     0.531510000000     0.032930000000     0          
C280     C      0.177900000000     0.553200000000     0.057000000000     0          
C281     C      0.028100000000     0.724800000000     0.346400000000     0          
H282     H      0.047830000000     0.728780000000     0.356480000000     0          
C283     C      0.028400000000     0.647900000000     0.198400000000     0          
H284     H      0.047750000000     0.653520000000     0.208430000000     0          
C285     C      0.029200000000     0.711100000000     0.314800000000     0          
H286     H      0.048940000000     0.706820000000     0.304980000000     0          
C287     C      0.030100000000     0.629900000000     0.169100000000     0          
C288     C      0.059700000000     0.618600000000     0.151200000000     0          
C289     C      0.082000000000     0.608700000000     0.136600000000     0          
C290     C      0.095330000000     0.574200000000     0.090800000000     0          
H291     H      0.073440000000     0.570340000000     0.087400000000     0          
C292     C      0.105100000000     0.594000000000     0.116100000000     0          
C293     C      0.137900000000     0.599810000000     0.121200000000     0          
H294     H      0.144420000000     0.613020000000     0.138160000000     0          
C295     C      0.160730000000     0.585900000000     0.100900000000     0          
H296     H      0.182610000000     0.589820000000     0.104270000000     0          
C297     C      0.150900000000     0.566200000000     0.075500000000     0          
C298     C      0.118200000000     0.560350000000     0.070470000000     0          
H299     H      0.111630000000     0.547140000000     0.053500000000     0          
O300     O      0.029610000000     0.252590000000     0.406280000000     0          
O301     O      0.793200000000     0.437160000000     0.062220000000     0          
O302     O      0.837180000000     0.468490000000     0.032930000000     0          
C303     C      0.822100000000     0.446800000000     0.057000000000     0          
C304     C      0.971900000000     0.275200000000     0.346400000000     0          
H305     H      0.952170000000     0.271220000000     0.356480000000     0          
C306     C      0.971600000000     0.352100000000     0.198400000000     0          
H307     H      0.952250000000     0.346480000000     0.208430000000     0          
C308     C      0.970800000000     0.288900000000     0.314800000000     0          
H309     H      0.951060000000     0.293180000000     0.304980000000     0          
C310     C      0.969900000000     0.370100000000     0.169100000000     0          
C311     C      0.940300000000     0.381400000000     0.151200000000     0          
C312     C      0.918000000000     0.391300000000     0.136600000000     0          
C313     C      0.904670000000     0.425800000000     0.090800000000     0          
H314     H      0.926560000000     0.429660000000     0.087400000000     0          
C315     C      0.894900000000     0.406000000000     0.116100000000     0          
C316     C      0.862100000000     0.400190000000     0.121200000000     0          
H317     H      0.855580000000     0.386980000000     0.138160000000     0          
C318     C      0.839270000000     0.414100000000     0.100900000000     0          
H319     H      0.817390000000     0.410180000000     0.104270000000     0          
C320     C      0.849100000000     0.433800000000     0.075500000000     0          
C321     C      0.881800000000     0.439650000000     0.070470000000     0          
H322     H      0.888370000000     0.452860000000     0.053500000000     0          
O323     O      0.970390000000     0.252590000000     0.593720000000     0          
O324     O      0.206800000000     0.437160000000     0.937780000000     0          
O325     O      0.162820000000     0.468490000000     0.967070000000     0          
C326     C      0.177900000000     0.446800000000     0.943000000000     0          
C327     C      0.028100000000     0.275200000000     0.653600000000     0          
H328     H      0.047830000000     0.271220000000     0.643520000000     0          
C329     C      0.028400000000     0.352100000000     0.801600000000     0          
H330     H      0.047750000000     0.346480000000     0.791570000000     0          
C331     C      0.029200000000     0.288900000000     0.685200000000     0          
H332     H      0.048940000000     0.293180000000     0.695020000000     0          
C333     C      0.030100000000     0.370100000000     0.830900000000     0          
C334     C      0.059700000000     0.381400000000     0.848800000000     0          
C335     C      0.082000000000     0.391300000000     0.863400000000     0          
C336     C      0.095330000000     0.425800000000     0.909200000000     0          
H337     H      0.073440000000     0.429660000000     0.912600000000     0          
C338     C      0.105100000000     0.406000000000     0.883900000000     0          
C339     C      0.137900000000     0.400190000000     0.878800000000     0          
H340     H      0.144420000000     0.386980000000     0.861840000000     0          
C341     C      0.160730000000     0.414100000000     0.899100000000     0          
H342     H      0.182610000000     0.410180000000     0.895730000000     0          
C343     C      0.150900000000     0.433800000000     0.924500000000     0          
C344     C      0.118200000000     0.439650000000     0.929530000000     0          
H345     H      0.111630000000     0.452860000000     0.946500000000     0          
O346     O      0.029610000000     0.747410000000     0.593720000000     0          
O347     O      0.793200000000     0.562840000000     0.937780000000     0          
O348     O      0.837180000000     0.531510000000     0.967070000000     0          
C349     C      0.822100000000     0.553200000000     0.943000000000     0          
C350     C      0.971900000000     0.724800000000     0.653600000000     0          
H351     H      0.952170000000     0.728780000000     0.643520000000     0          
C352     C      0.971600000000     0.647900000000     0.801600000000     0          
H353     H      0.952250000000     0.653520000000     0.791570000000     0          
C354     C      0.970800000000     0.711100000000     0.685200000000     0          
H355     H      0.951060000000     0.706820000000     0.695020000000     0          
C356     C      0.969900000000     0.629900000000     0.830900000000     0          
C357     C      0.940300000000     0.618600000000     0.848800000000     0          
C358     C      0.918000000000     0.608700000000     0.863400000000     0          
C359     C      0.904670000000     0.574200000000     0.909200000000     0          
H360     H      0.926560000000     0.570340000000     0.912600000000     0          
C361     C      0.894900000000     0.594000000000     0.883900000000     0          
C362     C      0.862100000000     0.599810000000     0.878800000000     0          
H363     H      0.855580000000     0.613020000000     0.861840000000     0          
C364     C      0.839270000000     0.585900000000     0.899100000000     0          
H365     H      0.817390000000     0.589820000000     0.895730000000     0          
C366     C      0.849100000000     0.566200000000     0.924500000000     0          
C367     C      0.881800000000     0.560350000000     0.929530000000     0          
H368     H      0.888370000000     0.547140000000     0.946500000000     0          
O369     O      0.747410000000     0.593720000000     0.029610000000     0          
O370     O      0.562840000000     0.937780000000     0.793200000000     0          
O371     O      0.531510000000     0.967070000000     0.837180000000     0          
C372     C      0.553200000000     0.943000000000     0.822100000000     0          
C373     C      0.724800000000     0.653600000000     0.971900000000     0          
H374     H      0.728780000000     0.643520000000     0.952170000000     0          
C375     C      0.647900000000     0.801600000000     0.971600000000     0          
H376     H      0.653520000000     0.791570000000     0.952250000000     0          
C377     C      0.711100000000     0.685200000000     0.970800000000     0          
H378     H      0.706820000000     0.695020000000     0.951060000000     0          
C379     C      0.629900000000     0.830900000000     0.969900000000     0          
C380     C      0.618600000000     0.848800000000     0.940300000000     0          
C381     C      0.608700000000     0.863400000000     0.918000000000     0          
C382     C      0.574200000000     0.909200000000     0.904670000000     0          
H383     H      0.570340000000     0.912600000000     0.926560000000     0          
C384     C      0.594000000000     0.883900000000     0.894900000000     0          
C385     C      0.599810000000     0.878800000000     0.862100000000     0          
H386     H      0.613020000000     0.861840000000     0.855580000000     0          
C387     C      0.585900000000     0.899100000000     0.839270000000     0          
H388     H      0.589820000000     0.895730000000     0.817390000000     0          
C389     C      0.566200000000     0.924500000000     0.849100000000     0          
C390     C      0.560350000000     0.929530000000     0.881800000000     0          
H391     H      0.547140000000     0.946500000000     0.888370000000     0          
O392     O      0.252590000000     0.593720000000     0.970390000000     0          
O393     O      0.437160000000     0.937780000000     0.206800000000     0          
O394     O      0.468490000000     0.967070000000     0.162820000000     0          
C395     C      0.446800000000     0.943000000000     0.177900000000     0          
C396     C      0.275200000000     0.653600000000     0.028100000000     0          
H397     H      0.271220000000     0.643520000000     0.047830000000     0          
C398     C      0.352100000000     0.801600000000     0.028400000000     0          
H399     H      0.346480000000     0.791570000000     0.047750000000     0          
C400     C      0.288900000000     0.685200000000     0.029200000000     0          
H401     H      0.293180000000     0.695020000000     0.048940000000     0          
C402     C      0.370100000000     0.830900000000     0.030100000000     0          
C403     C      0.381400000000     0.848800000000     0.059700000000     0          
C404     C      0.391300000000     0.863400000000     0.082000000000     0          
C405     C      0.425800000000     0.909200000000     0.095330000000     0          
H406     H      0.429660000000     0.912600000000     0.073440000000     0          
C407     C      0.406000000000     0.883900000000     0.105100000000     0          
C408     C      0.400190000000     0.878800000000     0.137900000000     0          
H409     H      0.386980000000     0.861840000000     0.144420000000     0          
C410     C      0.414100000000     0.899100000000     0.160730000000     0          
H411     H      0.410180000000     0.895730000000     0.182610000000     0          
C412     C      0.433800000000     0.924500000000     0.150900000000     0          
C413     C      0.439650000000     0.929530000000     0.118200000000     0          
H414     H      0.452860000000     0.946500000000     0.111630000000     0          
O415     O      0.252590000000     0.406280000000     0.029610000000     0          
O416     O      0.437160000000     0.062220000000     0.793200000000     0          
O417     O      0.468490000000     0.032930000000     0.837180000000     0          
C418     C      0.446800000000     0.057000000000     0.822100000000     0          
C419     C      0.275200000000     0.346400000000     0.971900000000     0          
H420     H      0.271220000000     0.356480000000     0.952170000000     0          
C421     C      0.352100000000     0.198400000000     0.971600000000     0          
H422     H      0.346480000000     0.208430000000     0.952250000000     0          
C423     C      0.288900000000     0.314800000000     0.970800000000     0          
H424     H      0.293180000000     0.304980000000     0.951060000000     0          
C425     C      0.370100000000     0.169100000000     0.969900000000     0          
C426     C      0.381400000000     0.151200000000     0.940300000000     0          
C427     C      0.391300000000     0.136600000000     0.918000000000     0          
C428     C      0.425800000000     0.090800000000     0.904670000000     0          
H429     H      0.429660000000     0.087400000000     0.926560000000     0          
C430     C      0.406000000000     0.116100000000     0.894900000000     0          
C431     C      0.400190000000     0.121200000000     0.862100000000     0          
H432     H      0.386980000000     0.138160000000     0.855580000000     0          
C433     C      0.414100000000     0.100900000000     0.839270000000     0          
H434     H      0.410180000000     0.104270000000     0.817390000000     0          
C435     C      0.433800000000     0.075500000000     0.849100000000     0          
C436     C      0.439650000000     0.070470000000     0.881800000000     0          
H437     H      0.452860000000     0.053500000000     0.888370000000     0          
O438     O      0.747410000000     0.406280000000     0.970390000000     0          
O439     O      0.562840000000     0.062220000000     0.206800000000     0          
O440     O      0.531510000000     0.032930000000     0.162820000000     0          
C441     C      0.553200000000     0.057000000000     0.177900000000     0          
C442     C      0.724800000000     0.346400000000     0.028100000000     0          
H443     H      0.728780000000     0.356480000000     0.047830000000     0          
C444     C      0.647900000000     0.198400000000     0.028400000000     0          
H445     H      0.653520000000     0.208430000000     0.047750000000     0          
C446     C      0.711100000000     0.314800000000     0.029200000000     0          
H447     H      0.706820000000     0.304980000000     0.048940000000     0          
C448     C      0.629900000000     0.169100000000     0.030100000000     0          
C449     C      0.618600000000     0.151200000000     0.059700000000     0          
C450     C      0.608700000000     0.136600000000     0.082000000000     0          
C451     C      0.574200000000     0.090800000000     0.095330000000     0          
H452     H      0.570340000000     0.087400000000     0.073440000000     0          
C453     C      0.594000000000     0.116100000000     0.105100000000     0          
C454     C      0.599810000000     0.121200000000     0.137900000000     0          
H455     H      0.613020000000     0.138160000000     0.144420000000     0          
C456     C      0.585900000000     0.100900000000     0.160730000000     0          
H457     H      0.589820000000     0.104270000000     0.182610000000     0          
C458     C      0.566200000000     0.075500000000     0.150900000000     0          
C459     C      0.560350000000     0.070470000000     0.118200000000     0          
H460     H      0.547140000000     0.053500000000     0.111630000000     0          
O461     O      0.593720000000     0.970390000000     0.252590000000     0          
O462     O      0.937780000000     0.206800000000     0.437160000000     0          
O463     O      0.967070000000     0.162820000000     0.468490000000     0          
C464     C      0.943000000000     0.177900000000     0.446800000000     0          
C465     C      0.653600000000     0.028100000000     0.275200000000     0          
H466     H      0.643520000000     0.047830000000     0.271220000000     0          
C467     C      0.801600000000     0.028400000000     0.352100000000     0          
H468     H      0.791570000000     0.047750000000     0.346480000000     0          
C469     C      0.685200000000     0.029200000000     0.288900000000     0          
H470     H      0.695020000000     0.048940000000     0.293180000000     0          
C471     C      0.830900000000     0.030100000000     0.370100000000     0          
C472     C      0.848800000000     0.059700000000     0.381400000000     0          
C473     C      0.863400000000     0.082000000000     0.391300000000     0          
C474     C      0.909200000000     0.095330000000     0.425800000000     0          
H475     H      0.912600000000     0.073440000000     0.429660000000     0          
C476     C      0.883900000000     0.105100000000     0.406000000000     0          
C477     C      0.878800000000     0.137900000000     0.400190000000     0          
H478     H      0.861840000000     0.144420000000     0.386980000000     0          
C479     C      0.899100000000     0.160730000000     0.414100000000     0          
H480     H      0.895730000000     0.182610000000     0.410180000000     0          
C481     C      0.924500000000     0.150900000000     0.433800000000     0          
C482     C      0.929530000000     0.118200000000     0.439650000000     0          
H483     H      0.946500000000     0.111630000000     0.452860000000     0          
O484     O      0.593720000000     0.029610000000     0.747410000000     0          
O485     O      0.937780000000     0.793200000000     0.562840000000     0          
O486     O      0.967070000000     0.837180000000     0.531510000000     0          
C487     C      0.943000000000     0.822100000000     0.553200000000     0          
C488     C      0.653600000000     0.971900000000     0.724800000000     0          
H489     H      0.643520000000     0.952170000000     0.728780000000     0          
C490     C      0.801600000000     0.971600000000     0.647900000000     0          
H491     H      0.791570000000     0.952250000000     0.653520000000     0          
C492     C      0.685200000000     0.970800000000     0.711100000000     0          
H493     H      0.695020000000     0.951060000000     0.706820000000     0          
C494     C      0.830900000000     0.969900000000     0.629900000000     0          
C495     C      0.848800000000     0.940300000000     0.618600000000     0          
C496     C      0.863400000000     0.918000000000     0.608700000000     0          
C497     C      0.909200000000     0.904670000000     0.574200000000     0          
H498     H      0.912600000000     0.926560000000     0.570340000000     0          
C499     C      0.883900000000     0.894900000000     0.594000000000     0          
C500     C      0.878800000000     0.862100000000     0.599810000000     0          
H501     H      0.861840000000     0.855580000000     0.613020000000     0          
C502     C      0.899100000000     0.839270000000     0.585900000000     0          
H503     H      0.895730000000     0.817390000000     0.589820000000     0          
C504     C      0.924500000000     0.849100000000     0.566200000000     0          
C505     C      0.929530000000     0.881800000000     0.560350000000     0          
H506     H      0.946500000000     0.888370000000     0.547140000000     0          
O507     O      0.406280000000     0.970390000000     0.747410000000     0          
O508     O      0.062220000000     0.206800000000     0.562840000000     0          
O509     O      0.032930000000     0.162820000000     0.531510000000     0          
C510     C      0.057000000000     0.177900000000     0.553200000000     0          
C511     C      0.346400000000     0.028100000000     0.724800000000     0          
H512     H      0.356480000000     0.047830000000     0.728780000000     0          
C513     C      0.198400000000     0.028400000000     0.647900000000     0          
H514     H      0.208430000000     0.047750000000     0.653520000000     0          
C515     C      0.314800000000     0.029200000000     0.711100000000     0          
H516     H      0.304980000000     0.048940000000     0.706820000000     0          
C517     C      0.169100000000     0.030100000000     0.629900000000     0          
C518     C      0.151200000000     0.059700000000     0.618600000000     0          
C519     C      0.136600000000     0.082000000000     0.608700000000     0          
C520     C      0.090800000000     0.095330000000     0.574200000000     0          
H521     H      0.087400000000     0.073440000000     0.570340000000     0          
C522     C      0.116100000000     0.105100000000     0.594000000000     0          
C523     C      0.121200000000     0.137900000000     0.599810000000     0          
H524     H      0.138160000000     0.144420000000     0.613020000000     0          
C525     C      0.100900000000     0.160730000000     0.585900000000     0          
H526     H      0.104270000000     0.182610000000     0.589820000000     0          
C527     C      0.075500000000     0.150900000000     0.566200000000     0          
C528     C      0.070470000000     0.118200000000     0.560350000000     0          
H529     H      0.053500000000     0.111630000000     0.547140000000     0          
O530     O      0.406280000000     0.029610000000     0.252590000000     0          
O531     O      0.062220000000     0.793200000000     0.437160000000     0          
O532     O      0.032930000000     0.837180000000     0.468490000000     0          
C533     C      0.057000000000     0.822100000000     0.446800000000     0          
C534     C      0.346400000000     0.971900000000     0.275200000000     0          
H535     H      0.356480000000     0.952170000000     0.271220000000     0          
C536     C      0.198400000000     0.971600000000     0.352100000000     0          
H537     H      0.208430000000     0.952250000000     0.346480000000     0          
C538     C      0.314800000000     0.970800000000     0.288900000000     0          
H539     H      0.304980000000     0.951060000000     0.293180000000     0          
C540     C      0.169100000000     0.969900000000     0.370100000000     0          
C541     C      0.151200000000     0.940300000000     0.381400000000     0          
C542     C      0.136600000000     0.918000000000     0.391300000000     0          
C543     C      0.090800000000     0.904670000000     0.425800000000     0          
H544     H      0.087400000000     0.926560000000     0.429660000000     0          
C545     C      0.116100000000     0.894900000000     0.406000000000     0          
C546     C      0.121200000000     0.862100000000     0.400190000000     0          
H547     H      0.138160000000     0.855580000000     0.386980000000     0          
C548     C      0.100900000000     0.839270000000     0.414100000000     0          
H549     H      0.104270000000     0.817390000000     0.410180000000     0          
C550     C      0.075500000000     0.849100000000     0.433800000000     0          
C551     C      0.070470000000     0.881800000000     0.439650000000     0          
H552     H      0.053500000000     0.888370000000     0.452860000000     0          
O553     O      0.752590000000     0.529610000000     0.906280000000     0          
O554     O      0.937160000000     0.293200000000     0.562220000000     0          
O555     O      0.968490000000     0.337180000000     0.532930000000     0          
C556     C      0.946800000000     0.322100000000     0.557000000000     0          
C557     C      0.775200000000     0.471900000000     0.846400000000     0          
H558     H      0.771220000000     0.452170000000     0.856480000000     0          
C559     C      0.852100000000     0.471600000000     0.698400000000     0          
H560     H      0.846480000000     0.452250000000     0.708430000000     0          
C561     C      0.788900000000     0.470800000000     0.814800000000     0          
H562     H      0.793180000000     0.451060000000     0.804980000000     0          
C563     C      0.870100000000     0.469900000000     0.669100000000     0          
C564     C      0.881400000000     0.440300000000     0.651200000000     0          
C565     C      0.891300000000     0.418000000000     0.636600000000     0          
C566     C      0.925800000000     0.404670000000     0.590800000000     0          
H567     H      0.929660000000     0.426560000000     0.587400000000     0          
C568     C      0.906000000000     0.394900000000     0.616100000000     0          
C569     C      0.900190000000     0.362100000000     0.621200000000     0          
H570     H      0.886980000000     0.355580000000     0.638160000000     0          
C571     C      0.914100000000     0.339270000000     0.600900000000     0          
H572     H      0.910180000000     0.317390000000     0.604270000000     0          
C573     C      0.933800000000     0.349100000000     0.575500000000     0          
C574     C      0.939650000000     0.381800000000     0.570470000000     0          
H575     H      0.952860000000     0.388370000000     0.553500000000     0          
O576     O      0.247410000000     0.470390000000     0.906280000000     0          
O577     O      0.062840000000     0.706800000000     0.562220000000     0          
O578     O      0.031510000000     0.662820000000     0.532930000000     0          
C579     C      0.053200000000     0.677900000000     0.557000000000     0          
C580     C      0.224800000000     0.528100000000     0.846400000000     0          
H581     H      0.228780000000     0.547830000000     0.856480000000     0          
C582     C      0.147900000000     0.528400000000     0.698400000000     0          
H583     H      0.153520000000     0.547750000000     0.708430000000     0          
C584     C      0.211100000000     0.529200000000     0.814800000000     0          
H585     H      0.206820000000     0.548940000000     0.804980000000     0          
C586     C      0.129900000000     0.530100000000     0.669100000000     0          
C587     C      0.118600000000     0.559700000000     0.651200000000     0          
C588     C      0.108700000000     0.582000000000     0.636600000000     0          
C589     C      0.074200000000     0.595330000000     0.590800000000     0          
H590     H      0.070340000000     0.573440000000     0.587400000000     0          
C591     C      0.094000000000     0.605100000000     0.616100000000     0          
C592     C      0.099810000000     0.637900000000     0.621200000000     0          
H593     H      0.113020000000     0.644420000000     0.638160000000     0          
C594     C      0.085900000000     0.660730000000     0.600900000000     0          
H595     H      0.089820000000     0.682610000000     0.604270000000     0          
C596     C      0.066200000000     0.650900000000     0.575500000000     0          
C597     C      0.060350000000     0.618200000000     0.570470000000     0          
H598     H      0.047140000000     0.611630000000     0.553500000000     0          
O599     O      0.247410000000     0.529610000000     0.093720000000     0          
O600     O      0.062840000000     0.293200000000     0.437780000000     0          
O601     O      0.031510000000     0.337180000000     0.467070000000     0          
C602     C      0.053200000000     0.322100000000     0.443000000000     0          
C603     C      0.224800000000     0.471900000000     0.153600000000     0          
H604     H      0.228780000000     0.452170000000     0.143520000000     0          
C605     C      0.147900000000     0.471600000000     0.301600000000     0          
H606     H      0.153520000000     0.452250000000     0.291570000000     0          
C607     C      0.211100000000     0.470800000000     0.185200000000     0          
H608     H      0.206820000000     0.451060000000     0.195020000000     0          
C609     C      0.129900000000     0.469900000000     0.330900000000     0          
C610     C      0.118600000000     0.440300000000     0.348800000000     0          
C611     C      0.108700000000     0.418000000000     0.363400000000     0          
C612     C      0.074200000000     0.404670000000     0.409200000000     0          
H613     H      0.070340000000     0.426560000000     0.412600000000     0          
C614     C      0.094000000000     0.394900000000     0.383900000000     0          
C615     C      0.099810000000     0.362100000000     0.378800000000     0          
H616     H      0.113020000000     0.355580000000     0.361840000000     0          
C617     C      0.085900000000     0.339270000000     0.399100000000     0          
H618     H      0.089820000000     0.317390000000     0.395730000000     0          
C619     C      0.066200000000     0.349100000000     0.424500000000     0          
C620     C      0.060350000000     0.381800000000     0.429530000000     0          
H621     H      0.047140000000     0.388370000000     0.446500000000     0          
O622     O      0.752590000000     0.470390000000     0.093720000000     0          
O623     O      0.937160000000     0.706800000000     0.437780000000     0          
O624     O      0.968490000000     0.662820000000     0.467070000000     0          
C625     C      0.946800000000     0.677900000000     0.443000000000     0          
C626     C      0.775200000000     0.528100000000     0.153600000000     0          
H627     H      0.771220000000     0.547830000000     0.143520000000     0          
C628     C      0.852100000000     0.528400000000     0.301600000000     0          
H629     H      0.846480000000     0.547750000000     0.291570000000     0          
C630     C      0.788900000000     0.529200000000     0.185200000000     0          
H631     H      0.793180000000     0.548940000000     0.195020000000     0          
C632     C      0.870100000000     0.530100000000     0.330900000000     0          
C633     C      0.881400000000     0.559700000000     0.348800000000     0          
C634     C      0.891300000000     0.582000000000     0.363400000000     0          
C635     C      0.925800000000     0.595330000000     0.409200000000     0          
H636     H      0.929660000000     0.573440000000     0.412600000000     0          
C637     C      0.906000000000     0.605100000000     0.383900000000     0          
C638     C      0.900190000000     0.637900000000     0.378800000000     0          
H639     H      0.886980000000     0.644420000000     0.361840000000     0          
C640     C      0.914100000000     0.660730000000     0.399100000000     0          
H641     H      0.910180000000     0.682610000000     0.395730000000     0          
C642     C      0.933800000000     0.650900000000     0.424500000000     0          
C643     C      0.939650000000     0.618200000000     0.429530000000     0          
H644     H      0.952860000000     0.611630000000     0.446500000000     0          
O645     O      0.906280000000     0.752590000000     0.529610000000     0          
O646     O      0.562220000000     0.937160000000     0.293200000000     0          
O647     O      0.532930000000     0.968490000000     0.337180000000     0          
C648     C      0.557000000000     0.946800000000     0.322100000000     0          
C649     C      0.846400000000     0.775200000000     0.471900000000     0          
H650     H      0.856480000000     0.771220000000     0.452170000000     0          
C651     C      0.698400000000     0.852100000000     0.471600000000     0          
H652     H      0.708430000000     0.846480000000     0.452250000000     0          
C653     C      0.814800000000     0.788900000000     0.470800000000     0          
H654     H      0.804980000000     0.793180000000     0.451060000000     0          
C655     C      0.669100000000     0.870100000000     0.469900000000     0          
C656     C      0.651200000000     0.881400000000     0.440300000000     0          
C657     C      0.636600000000     0.891300000000     0.418000000000     0          
C658     C      0.590800000000     0.925800000000     0.404670000000     0          
H659     H      0.587400000000     0.929660000000     0.426560000000     0          
C660     C      0.616100000000     0.906000000000     0.394900000000     0          
C661     C      0.621200000000     0.900190000000     0.362100000000     0          
H662     H      0.638160000000     0.886980000000     0.355580000000     0          
C663     C      0.600900000000     0.914100000000     0.339270000000     0          
H664     H      0.604270000000     0.910180000000     0.317390000000     0          
C665     C      0.575500000000     0.933800000000     0.349100000000     0          
C666     C      0.570470000000     0.939650000000     0.381800000000     0          
H667     H      0.553500000000     0.952860000000     0.388370000000     0          
O668     O      0.906280000000     0.247410000000     0.470390000000     0          
O669     O      0.562220000000     0.062840000000     0.706800000000     0          
O670     O      0.532930000000     0.031510000000     0.662820000000     0          
C671     C      0.557000000000     0.053200000000     0.677900000000     0          
C672     C      0.846400000000     0.224800000000     0.528100000000     0          
H673     H      0.856480000000     0.228780000000     0.547830000000     0          
C674     C      0.698400000000     0.147900000000     0.528400000000     0          
H675     H      0.708430000000     0.153520000000     0.547750000000     0          
C676     C      0.814800000000     0.211100000000     0.529200000000     0          
H677     H      0.804980000000     0.206820000000     0.548940000000     0          
C678     C      0.669100000000     0.129900000000     0.530100000000     0          
C679     C      0.651200000000     0.118600000000     0.559700000000     0          
C680     C      0.636600000000     0.108700000000     0.582000000000     0          
C681     C      0.590800000000     0.074200000000     0.595330000000     0          
H682     H      0.587400000000     0.070340000000     0.573440000000     0          
C683     C      0.616100000000     0.094000000000     0.605100000000     0          
C684     C      0.621200000000     0.099810000000     0.637900000000     0          
H685     H      0.638160000000     0.113020000000     0.644420000000     0          
C686     C      0.600900000000     0.085900000000     0.660730000000     0          
H687     H      0.604270000000     0.089820000000     0.682610000000     0          
C688     C      0.575500000000     0.066200000000     0.650900000000     0          
C689     C      0.570470000000     0.060350000000     0.618200000000     0          
H690     H      0.553500000000     0.047140000000     0.611630000000     0          
O691     O      0.093720000000     0.247410000000     0.529610000000     0          
O692     O      0.437780000000     0.062840000000     0.293200000000     0          
O693     O      0.467070000000     0.031510000000     0.337180000000     0          
C694     C      0.443000000000     0.053200000000     0.322100000000     0          
C695     C      0.153600000000     0.224800000000     0.471900000000     0          
H696     H      0.143520000000     0.228780000000     0.452170000000     0          
C697     C      0.301600000000     0.147900000000     0.471600000000     0          
H698     H      0.291570000000     0.153520000000     0.452250000000     0          
C699     C      0.185200000000     0.211100000000     0.470800000000     0          
H700     H      0.195020000000     0.206820000000     0.451060000000     0          
C701     C      0.330900000000     0.129900000000     0.469900000000     0          
C702     C      0.348800000000     0.118600000000     0.440300000000     0          
C703     C      0.363400000000     0.108700000000     0.418000000000     0          
C704     C      0.409200000000     0.074200000000     0.404670000000     0          
H705     H      0.412600000000     0.070340000000     0.426560000000     0          
C706     C      0.383900000000     0.094000000000     0.394900000000     0          
C707     C      0.378800000000     0.099810000000     0.362100000000     0          
H708     H      0.361840000000     0.113020000000     0.355580000000     0          
C709     C      0.399100000000     0.085900000000     0.339270000000     0          
H710     H      0.395730000000     0.089820000000     0.317390000000     0          
C711     C      0.424500000000     0.066200000000     0.349100000000     0          
C712     C      0.429530000000     0.060350000000     0.381800000000     0          
H713     H      0.446500000000     0.047140000000     0.388370000000     0          
O714     O      0.093720000000     0.752590000000     0.470390000000     0          
O715     O      0.437780000000     0.937160000000     0.706800000000     0          
O716     O      0.467070000000     0.968490000000     0.662820000000     0          
C717     C      0.443000000000     0.946800000000     0.677900000000     0          
C718     C      0.153600000000     0.775200000000     0.528100000000     0          
H719     H      0.143520000000     0.771220000000     0.547830000000     0          
C720     C      0.301600000000     0.852100000000     0.528400000000     0          
H721     H      0.291570000000     0.846480000000     0.547750000000     0          
C722     C      0.185200000000     0.788900000000     0.529200000000     0          
H723     H      0.195020000000     0.793180000000     0.548940000000     0          
C724     C      0.330900000000     0.870100000000     0.530100000000     0          
C725     C      0.348800000000     0.881400000000     0.559700000000     0          
C726     C      0.363400000000     0.891300000000     0.582000000000     0          
C727     C      0.409200000000     0.925800000000     0.595330000000     0          
H728     H      0.412600000000     0.929660000000     0.573440000000     0          
C729     C      0.383900000000     0.906000000000     0.605100000000     0          
C730     C      0.378800000000     0.900190000000     0.637900000000     0          
H731     H      0.361840000000     0.886980000000     0.644420000000     0          
C732     C      0.399100000000     0.914100000000     0.660730000000     0          
H733     H      0.395730000000     0.910180000000     0.682610000000     0          
C734     C      0.424500000000     0.933800000000     0.650900000000     0          
C735     C      0.429530000000     0.939650000000     0.618200000000     0          
H736     H      0.446500000000     0.952860000000     0.611630000000     0          
O737     O      0.529610000000     0.906280000000     0.752590000000     0          
O738     O      0.293200000000     0.562220000000     0.937160000000     0          
O739     O      0.337180000000     0.532930000000     0.968490000000     0          
C740     C      0.322100000000     0.557000000000     0.946800000000     0          
C741     C      0.471900000000     0.846400000000     0.775200000000     0          
H742     H      0.452170000000     0.856480000000     0.771220000000     0          
C743     C      0.471600000000     0.698400000000     0.852100000000     0          
H744     H      0.452250000000     0.708430000000     0.846480000000     0          
C745     C      0.470800000000     0.814800000000     0.788900000000     0          
H746     H      0.451060000000     0.804980000000     0.793180000000     0          
C747     C      0.469900000000     0.669100000000     0.870100000000     0          
C748     C      0.440300000000     0.651200000000     0.881400000000     0          
C749     C      0.418000000000     0.636600000000     0.891300000000     0          
C750     C      0.404670000000     0.590800000000     0.925800000000     0          
H751     H      0.426560000000     0.587400000000     0.929660000000     0          
C752     C      0.394900000000     0.616100000000     0.906000000000     0          
C753     C      0.362100000000     0.621200000000     0.900190000000     0          
H754     H      0.355580000000     0.638160000000     0.886980000000     0          
C755     C      0.339270000000     0.600900000000     0.914100000000     0          
H756     H      0.317390000000     0.604270000000     0.910180000000     0          
C757     C      0.349100000000     0.575500000000     0.933800000000     0          
C758     C      0.381800000000     0.570470000000     0.939650000000     0          
H759     H      0.388370000000     0.553500000000     0.952860000000     0          
O760     O      0.470390000000     0.906280000000     0.247410000000     0          
O761     O      0.706800000000     0.562220000000     0.062840000000     0          
O762     O      0.662820000000     0.532930000000     0.031510000000     0          
C763     C      0.677900000000     0.557000000000     0.053200000000     0          
C764     C      0.528100000000     0.846400000000     0.224800000000     0          
H765     H      0.547830000000     0.856480000000     0.228780000000     0          
C766     C      0.528400000000     0.698400000000     0.147900000000     0          
H767     H      0.547750000000     0.708430000000     0.153520000000     0          
C768     C      0.529200000000     0.814800000000     0.211100000000     0          
H769     H      0.548940000000     0.804980000000     0.206820000000     0          
C770     C      0.530100000000     0.669100000000     0.129900000000     0          
C771     C      0.559700000000     0.651200000000     0.118600000000     0          
C772     C      0.582000000000     0.636600000000     0.108700000000     0          
C773     C      0.595330000000     0.590800000000     0.074200000000     0          
H774     H      0.573440000000     0.587400000000     0.070340000000     0          
C775     C      0.605100000000     0.616100000000     0.094000000000     0          
C776     C      0.637900000000     0.621200000000     0.099810000000     0          
H777     H      0.644420000000     0.638160000000     0.113020000000     0          
C778     C      0.660730000000     0.600900000000     0.085900000000     0          
H779     H      0.682610000000     0.604270000000     0.089820000000     0          
C780     C      0.650900000000     0.575500000000     0.066200000000     0          
C781     C      0.618200000000     0.570470000000     0.060350000000     0          
H782     H      0.611630000000     0.553500000000     0.047140000000     0          
O783     O      0.529610000000     0.093720000000     0.247410000000     0          
O784     O      0.293200000000     0.437780000000     0.062840000000     0          
O785     O      0.337180000000     0.467070000000     0.031510000000     0          
C786     C      0.322100000000     0.443000000000     0.053200000000     0          
C787     C      0.471900000000     0.153600000000     0.224800000000     0          
H788     H      0.452170000000     0.143520000000     0.228780000000     0          
C789     C      0.471600000000     0.301600000000     0.147900000000     0          
H790     H      0.452250000000     0.291570000000     0.153520000000     0          
C791     C      0.470800000000     0.185200000000     0.211100000000     0          
H792     H      0.451060000000     0.195020000000     0.206820000000     0          
C793     C      0.469900000000     0.330900000000     0.129900000000     0          
C794     C      0.440300000000     0.348800000000     0.118600000000     0          
C795     C      0.418000000000     0.363400000000     0.108700000000     0          
C796     C      0.404670000000     0.409200000000     0.074200000000     0          
H797     H      0.426560000000     0.412600000000     0.070340000000     0          
C798     C      0.394900000000     0.383900000000     0.094000000000     0          
C799     C      0.362100000000     0.378800000000     0.099810000000     0          
H800     H      0.355580000000     0.361840000000     0.113020000000     0          
C801     C      0.339270000000     0.399100000000     0.085900000000     0          
H802     H      0.317390000000     0.395730000000     0.089820000000     0          
C803     C      0.349100000000     0.424500000000     0.066200000000     0          
C804     C      0.381800000000     0.429530000000     0.060350000000     0          
H805     H      0.388370000000     0.446500000000     0.047140000000     0          
O806     O      0.470390000000     0.093720000000     0.752590000000     0          
O807     O      0.706800000000     0.437780000000     0.937160000000     0          
O808     O      0.662820000000     0.467070000000     0.968490000000     0          
C809     C      0.677900000000     0.443000000000     0.946800000000     0          
C810     C      0.528100000000     0.153600000000     0.775200000000     0          
H811     H      0.547830000000     0.143520000000     0.771220000000     0          
C812     C      0.528400000000     0.301600000000     0.852100000000     0          
H813     H      0.547750000000     0.291570000000     0.846480000000     0          
C814     C      0.529200000000     0.185200000000     0.788900000000     0          
H815     H      0.548940000000     0.195020000000     0.793180000000     0          
C816     C      0.530100000000     0.330900000000     0.870100000000     0          
C817     C      0.559700000000     0.348800000000     0.881400000000     0          
C818     C      0.582000000000     0.363400000000     0.891300000000     0          
C819     C      0.595330000000     0.409200000000     0.925800000000     0          
H820     H      0.573440000000     0.412600000000     0.929660000000     0          
C821     C      0.605100000000     0.383900000000     0.906000000000     0          
C822     C      0.637900000000     0.378800000000     0.900190000000     0          
H823     H      0.644420000000     0.361840000000     0.886980000000     0          
C824     C      0.660730000000     0.399100000000     0.914100000000     0          
H825     H      0.682610000000     0.395730000000     0.910180000000     0          
C826     C      0.650900000000     0.424500000000     0.933800000000     0          
C827     C      0.618200000000     0.429530000000     0.939650000000     0          
H828     H      0.611630000000     0.446500000000     0.952860000000     0          
O829     O      0.029610000000     0.252590000000     0.593720000000     0          
O830     O      0.793200000000     0.437160000000     0.937780000000     0          
O831     O      0.837180000000     0.468490000000     0.967070000000     0          
C832     C      0.822100000000     0.446800000000     0.943000000000     0          
C833     C      0.971900000000     0.275200000000     0.653600000000     0          
H834     H      0.952170000000     0.271220000000     0.643520000000     0          
C835     C      0.971600000000     0.352100000000     0.801600000000     0          
H836     H      0.952250000000     0.346480000000     0.791570000000     0          
C837     C      0.970800000000     0.288900000000     0.685200000000     0          
H838     H      0.951060000000     0.293180000000     0.695020000000     0          
C839     C      0.969900000000     0.370100000000     0.830900000000     0          
C840     C      0.940300000000     0.381400000000     0.848800000000     0          
C841     C      0.918000000000     0.391300000000     0.863400000000     0          
C842     C      0.904670000000     0.425800000000     0.909200000000     0          
H843     H      0.926560000000     0.429660000000     0.912600000000     0          
C844     C      0.894900000000     0.406000000000     0.883900000000     0          
C845     C      0.862100000000     0.400190000000     0.878800000000     0          
H846     H      0.855580000000     0.386980000000     0.861840000000     0          
C847     C      0.839270000000     0.414100000000     0.899100000000     0          
H848     H      0.817390000000     0.410180000000     0.895730000000     0          
C849     C      0.849100000000     0.433800000000     0.924500000000     0          
C850     C      0.881800000000     0.439650000000     0.929530000000     0          
H851     H      0.888370000000     0.452860000000     0.946500000000     0          
O852     O      0.970390000000     0.747410000000     0.593720000000     0          
O853     O      0.206800000000     0.562840000000     0.937780000000     0          
O854     O      0.162820000000     0.531510000000     0.967070000000     0          
C855     C      0.177900000000     0.553200000000     0.943000000000     0          
C856     C      0.028100000000     0.724800000000     0.653600000000     0          
H857     H      0.047830000000     0.728780000000     0.643520000000     0          
C858     C      0.028400000000     0.647900000000     0.801600000000     0          
H859     H      0.047750000000     0.653520000000     0.791570000000     0          
C860     C      0.029200000000     0.711100000000     0.685200000000     0          
H861     H      0.048940000000     0.706820000000     0.695020000000     0          
C862     C      0.030100000000     0.629900000000     0.830900000000     0          
C863     C      0.059700000000     0.618600000000     0.848800000000     0          
C864     C      0.082000000000     0.608700000000     0.863400000000     0          
C865     C      0.095330000000     0.574200000000     0.909200000000     0          
H866     H      0.073440000000     0.570340000000     0.912600000000     0          
C867     C      0.105100000000     0.594000000000     0.883900000000     0          
C868     C      0.137900000000     0.599810000000     0.878800000000     0          
H869     H      0.144420000000     0.613020000000     0.861840000000     0          
C870     C      0.160730000000     0.585900000000     0.899100000000     0          
H871     H      0.182610000000     0.589820000000     0.895730000000     0          
C872     C      0.150900000000     0.566200000000     0.924500000000     0          
C873     C      0.118200000000     0.560350000000     0.929530000000     0          
H874     H      0.111630000000     0.547140000000     0.946500000000     0          
O875     O      0.029610000000     0.747410000000     0.406280000000     0          
O876     O      0.793200000000     0.562840000000     0.062220000000     0          
O877     O      0.837180000000     0.531510000000     0.032930000000     0          
C878     C      0.822100000000     0.553200000000     0.057000000000     0          
C879     C      0.971900000000     0.724800000000     0.346400000000     0          
H880     H      0.952170000000     0.728780000000     0.356480000000     0          
C881     C      0.971600000000     0.647900000000     0.198400000000     0          
H882     H      0.952250000000     0.653520000000     0.208430000000     0          
C883     C      0.970800000000     0.711100000000     0.314800000000     0          
H884     H      0.951060000000     0.706820000000     0.304980000000     0          
C885     C      0.969900000000     0.629900000000     0.169100000000     0          
C886     C      0.940300000000     0.618600000000     0.151200000000     0          
C887     C      0.918000000000     0.608700000000     0.136600000000     0          
C888     C      0.904670000000     0.574200000000     0.090800000000     0          
H889     H      0.926560000000     0.570340000000     0.087400000000     0          
C890     C      0.894900000000     0.594000000000     0.116100000000     0          
C891     C      0.862100000000     0.599810000000     0.121200000000     0          
H892     H      0.855580000000     0.613020000000     0.138160000000     0          
C893     C      0.839270000000     0.585900000000     0.100900000000     0          
H894     H      0.817390000000     0.589820000000     0.104270000000     0          
C895     C      0.849100000000     0.566200000000     0.075500000000     0          
C896     C      0.881800000000     0.560350000000     0.070470000000     0          
H897     H      0.888370000000     0.547140000000     0.053500000000     0          
O898     O      0.970390000000     0.252590000000     0.406280000000     0          
O899     O      0.206800000000     0.437160000000     0.062220000000     0          
O900     O      0.162820000000     0.468490000000     0.032930000000     0          
C901     C      0.177900000000     0.446800000000     0.057000000000     0          
C902     C      0.028100000000     0.275200000000     0.346400000000     0          
H903     H      0.047830000000     0.271220000000     0.356480000000     0          
C904     C      0.028400000000     0.352100000000     0.198400000000     0          
H905     H      0.047750000000     0.346480000000     0.208430000000     0          
C906     C      0.029200000000     0.288900000000     0.314800000000     0          
H907     H      0.048940000000     0.293180000000     0.304980000000     0          
C908     C      0.030100000000     0.370100000000     0.169100000000     0          
C909     C      0.059700000000     0.381400000000     0.151200000000     0          
C910     C      0.082000000000     0.391300000000     0.136600000000     0          
C911     C      0.095330000000     0.425800000000     0.090800000000     0          
H912     H      0.073440000000     0.429660000000     0.087400000000     0          
C913     C      0.105100000000     0.406000000000     0.116100000000     0          
C914     C      0.137900000000     0.400190000000     0.121200000000     0          
H915     H      0.144420000000     0.386980000000     0.138160000000     0          
C916     C      0.160730000000     0.414100000000     0.100900000000     0          
H917     H      0.182610000000     0.410180000000     0.104270000000     0          
C918     C      0.150900000000     0.433800000000     0.075500000000     0          
C919     C      0.118200000000     0.439650000000     0.070470000000     0          
H920     H      0.111630000000     0.452860000000     0.053500000000     0          
O921     O      0.252590000000     0.406280000000     0.970390000000     0          
O922     O      0.437160000000     0.062220000000     0.206800000000     0          
O923     O      0.468490000000     0.032930000000     0.162820000000     0          
C924     C      0.446800000000     0.057000000000     0.177900000000     0          
C925     C      0.275200000000     0.346400000000     0.028100000000     0          
H926     H      0.271220000000     0.356480000000     0.047830000000     0          
C927     C      0.352100000000     0.198400000000     0.028400000000     0          
H928     H      0.346480000000     0.208430000000     0.047750000000     0          
C929     C      0.288900000000     0.314800000000     0.029200000000     0          
H930     H      0.293180000000     0.304980000000     0.048940000000     0          
C931     C      0.370100000000     0.169100000000     0.030100000000     0          
C932     C      0.381400000000     0.151200000000     0.059700000000     0          
C933     C      0.391300000000     0.136600000000     0.082000000000     0          
C934     C      0.425800000000     0.090800000000     0.095330000000     0          
H935     H      0.429660000000     0.087400000000     0.073440000000     0          
C936     C      0.406000000000     0.116100000000     0.105100000000     0          
C937     C      0.400190000000     0.121200000000     0.137900000000     0          
H938     H      0.386980000000     0.138160000000     0.144420000000     0          
C939     C      0.414100000000     0.100900000000     0.160730000000     0          
H940     H      0.410180000000     0.104270000000     0.182610000000     0          
C941     C      0.433800000000     0.075500000000     0.150900000000     0          
C942     C      0.439650000000     0.070470000000     0.118200000000     0          
H943     H      0.452860000000     0.053500000000     0.111630000000     0          
O944     O      0.747410000000     0.406280000000     0.029610000000     0          
O945     O      0.562840000000     0.062220000000     0.793200000000     0          
O946     O      0.531510000000     0.032930000000     0.837180000000     0          
C947     C      0.553200000000     0.057000000000     0.822100000000     0          
C948     C      0.724800000000     0.346400000000     0.971900000000     0          
H949     H      0.728780000000     0.356480000000     0.952170000000     0          
C950     C      0.647900000000     0.198400000000     0.971600000000     0          
H951     H      0.653520000000     0.208430000000     0.952250000000     0          
C952     C      0.711100000000     0.314800000000     0.970800000000     0          
H953     H      0.706820000000     0.304980000000     0.951060000000     0          
C954     C      0.629900000000     0.169100000000     0.969900000000     0          
C955     C      0.618600000000     0.151200000000     0.940300000000     0          
C956     C      0.608700000000     0.136600000000     0.918000000000     0          
C957     C      0.574200000000     0.090800000000     0.904670000000     0          
H958     H      0.570340000000     0.087400000000     0.926560000000     0          
C959     C      0.594000000000     0.116100000000     0.894900000000     0          
C960     C      0.599810000000     0.121200000000     0.862100000000     0          
H961     H      0.613020000000     0.138160000000     0.855580000000     0          
C962     C      0.585900000000     0.100900000000     0.839270000000     0          
H963     H      0.589820000000     0.104270000000     0.817390000000     0          
C964     C      0.566200000000     0.075500000000     0.849100000000     0          
C965     C      0.560350000000     0.070470000000     0.881800000000     0          
H966     H      0.547140000000     0.053500000000     0.888370000000     0          
O967     O      0.747410000000     0.593720000000     0.970390000000     0          
O968     O      0.562840000000     0.937780000000     0.206800000000     0          
O969     O      0.531510000000     0.967070000000     0.162820000000     0          
C970     C      0.553200000000     0.943000000000     0.177900000000     0          
C971     C      0.724800000000     0.653600000000     0.028100000000     0          
H972     H      0.728780000000     0.643520000000     0.047830000000     0          
C973     C      0.647900000000     0.801600000000     0.028400000000     0          
H974     H      0.653520000000     0.791570000000     0.047750000000     0          
C975     C      0.711100000000     0.685200000000     0.029200000000     0          
H976     H      0.706820000000     0.695020000000     0.048940000000     0          
C977     C      0.629900000000     0.830900000000     0.030100000000     0          
C978     C      0.618600000000     0.848800000000     0.059700000000     0          
C979     C      0.608700000000     0.863400000000     0.082000000000     0          
C980     C      0.574200000000     0.909200000000     0.095330000000     0          
H981     H      0.570340000000     0.912600000000     0.073440000000     0          
C982     C      0.594000000000     0.883900000000     0.105100000000     0          
C983     C      0.599810000000     0.878800000000     0.137900000000     0          
H984     H      0.613020000000     0.861840000000     0.144420000000     0          
C985     C      0.585900000000     0.899100000000     0.160730000000     0          
H986     H      0.589820000000     0.895730000000     0.182610000000     0          
C987     C      0.566200000000     0.924500000000     0.150900000000     0          
C988     C      0.560350000000     0.929530000000     0.118200000000     0          
H989     H      0.547140000000     0.946500000000     0.111630000000     0          
O990     O      0.252590000000     0.593720000000     0.029610000000     0          
O991     O      0.437160000000     0.937780000000     0.793200000000     0          
O992     O      0.468490000000     0.967070000000     0.837180000000     0          
C993     C      0.446800000000     0.943000000000     0.822100000000     0          
C994     C      0.275200000000     0.653600000000     0.971900000000     0          
H995     H      0.271220000000     0.643520000000     0.952170000000     0          
C996     C      0.352100000000     0.801600000000     0.971600000000     0          
H997     H      0.346480000000     0.791570000000     0.952250000000     0          
C998     C      0.288900000000     0.685200000000     0.970800000000     0          
H999     H      0.293180000000     0.695020000000     0.951060000000     0          
C1000    C      0.370100000000     0.830900000000     0.969900000000     0          
C1001    C      0.381400000000     0.848800000000     0.940300000000     0          
C1002    C      0.391300000000     0.863400000000     0.918000000000     0          
C1003    C      0.425800000000     0.909200000000     0.904670000000     0          
H1004    H      0.429660000000     0.912600000000     0.926560000000     0          
C1005    C      0.406000000000     0.883900000000     0.894900000000     0          
C1006    C      0.400190000000     0.878800000000     0.862100000000     0          
H1007    H      0.386980000000     0.861840000000     0.855580000000     0          
C1008    C      0.414100000000     0.899100000000     0.839270000000     0          
H1009    H      0.410180000000     0.895730000000     0.817390000000     0          
C1010    C      0.433800000000     0.924500000000     0.849100000000     0          
C1011    C      0.439650000000     0.929530000000     0.881800000000     0          
H1012    H      0.452860000000     0.946500000000     0.888370000000     0          
O1013    O      0.406280000000     0.029610000000     0.747410000000     0          
O1014    O      0.062220000000     0.793200000000     0.562840000000     0          
O1015    O      0.032930000000     0.837180000000     0.531510000000     0          
C1016    C      0.057000000000     0.822100000000     0.553200000000     0          
C1017    C      0.346400000000     0.971900000000     0.724800000000     0          
H1018    H      0.356480000000     0.952170000000     0.728780000000     0          
C1019    C      0.198400000000     0.971600000000     0.647900000000     0          
H1020    H      0.208430000000     0.952250000000     0.653520000000     0          
C1021    C      0.314800000000     0.970800000000     0.711100000000     0          
H1022    H      0.304980000000     0.951060000000     0.706820000000     0          
C1023    C      0.169100000000     0.969900000000     0.629900000000     0          
C1024    C      0.151200000000     0.940300000000     0.618600000000     0          
C1025    C      0.136600000000     0.918000000000     0.608700000000     0          
C1026    C      0.090800000000     0.904670000000     0.574200000000     0          
H1027    H      0.087400000000     0.926560000000     0.570340000000     0          
C1028    C      0.116100000000     0.894900000000     0.594000000000     0          
C1029    C      0.121200000000     0.862100000000     0.599810000000     0          
H1030    H      0.138160000000     0.855580000000     0.613020000000     0          
C1031    C      0.100900000000     0.839270000000     0.585900000000     0          
H1032    H      0.104270000000     0.817390000000     0.589820000000     0          
C1033    C      0.075500000000     0.849100000000     0.566200000000     0          
C1034    C      0.070470000000     0.881800000000     0.560350000000     0          
H1035    H      0.053500000000     0.888370000000     0.547140000000     0          
O1036    O      0.406280000000     0.970390000000     0.252590000000     0          
O1037    O      0.062220000000     0.206800000000     0.437160000000     0          
O1038    O      0.032930000000     0.162820000000     0.468490000000     0          
C1039    C      0.057000000000     0.177900000000     0.446800000000     0          
C1040    C      0.346400000000     0.028100000000     0.275200000000     0          
H1041    H      0.356480000000     0.047830000000     0.271220000000     0          
C1042    C      0.198400000000     0.028400000000     0.352100000000     0          
H1043    H      0.208430000000     0.047750000000     0.346480000000     0          
C1044    C      0.314800000000     0.029200000000     0.288900000000     0          
H1045    H      0.304980000000     0.048940000000     0.293180000000     0          
C1046    C      0.169100000000     0.030100000000     0.370100000000     0          
C1047    C      0.151200000000     0.059700000000     0.381400000000     0          
C1048    C      0.136600000000     0.082000000000     0.391300000000     0          
C1049    C      0.090800000000     0.095330000000     0.425800000000     0          
H1050    H      0.087400000000     0.073440000000     0.429660000000     0          
C1051    C      0.116100000000     0.105100000000     0.406000000000     0          
C1052    C      0.121200000000     0.137900000000     0.400190000000     0          
H1053    H      0.138160000000     0.144420000000     0.386980000000     0          
C1054    C      0.100900000000     0.160730000000     0.414100000000     0          
H1055    H      0.104270000000     0.182610000000     0.410180000000     0          
C1056    C      0.075500000000     0.150900000000     0.433800000000     0          
C1057    C      0.070470000000     0.118200000000     0.439650000000     0          
H1058    H      0.053500000000     0.111630000000     0.452860000000     0          
O1059    O      0.593720000000     0.029610000000     0.252590000000     0          
O1060    O      0.937780000000     0.793200000000     0.437160000000     0          
O1061    O      0.967070000000     0.837180000000     0.468490000000     0          
C1062    C      0.943000000000     0.822100000000     0.446800000000     0          
C1063    C      0.653600000000     0.971900000000     0.275200000000     0          
H1064    H      0.643520000000     0.952170000000     0.271220000000     0          
C1065    C      0.801600000000     0.971600000000     0.352100000000     0          
H1066    H      0.791570000000     0.952250000000     0.346480000000     0          
C1067    C      0.685200000000     0.970800000000     0.288900000000     0          
H1068    H      0.695020000000     0.951060000000     0.293180000000     0          
C1069    C      0.830900000000     0.969900000000     0.370100000000     0          
C1070    C      0.848800000000     0.940300000000     0.381400000000     0          
C1071    C      0.863400000000     0.918000000000     0.391300000000     0          
C1072    C      0.909200000000     0.904670000000     0.425800000000     0          
H1073    H      0.912600000000     0.926560000000     0.429660000000     0          
C1074    C      0.883900000000     0.894900000000     0.406000000000     0          
C1075    C      0.878800000000     0.862100000000     0.400190000000     0          
H1076    H      0.861840000000     0.855580000000     0.386980000000     0          
C1077    C      0.899100000000     0.839270000000     0.414100000000     0          
H1078    H      0.895730000000     0.817390000000     0.410180000000     0          
C1079    C      0.924500000000     0.849100000000     0.433800000000     0          
C1080    C      0.929530000000     0.881800000000     0.439650000000     0          
H1081    H      0.946500000000     0.888370000000     0.452860000000     0          
O1082    O      0.593720000000     0.970390000000     0.747410000000     0          
O1083    O      0.937780000000     0.206800000000     0.562840000000     0          
O1084    O      0.967070000000     0.162820000000     0.531510000000     0          
C1085    C      0.943000000000     0.177900000000     0.553200000000     0          
C1086    C      0.653600000000     0.028100000000     0.724800000000     0          
H1087    H      0.643520000000     0.047830000000     0.728780000000     0          
C1088    C      0.801600000000     0.028400000000     0.647900000000     0          
H1089    H      0.791570000000     0.047750000000     0.653520000000     0          
C1090    C      0.685200000000     0.029200000000     0.711100000000     0          
H1091    H      0.695020000000     0.048940000000     0.706820000000     0          
C1092    C      0.830900000000     0.030100000000     0.629900000000     0          
C1093    C      0.848800000000     0.059700000000     0.618600000000     0          
C1094    C      0.863400000000     0.082000000000     0.608700000000     0          
C1095    C      0.909200000000     0.095330000000     0.574200000000     0          
H1096    H      0.912600000000     0.073440000000     0.570340000000     0          
C1097    C      0.883900000000     0.105100000000     0.594000000000     0          
C1098    C      0.878800000000     0.137900000000     0.599810000000     0          
H1099    H      0.861840000000     0.144420000000     0.613020000000     0          
C1100    C      0.899100000000     0.160730000000     0.585900000000     0          
H1101    H      0.895730000000     0.182610000000     0.589820000000     0          
C1102    C      0.924500000000     0.150900000000     0.566200000000     0          
C1103    C      0.929530000000     0.118200000000     0.560350000000     0          
H1104    H      0.946500000000     0.111630000000     0.547140000000     0          
Zr1105   Zr     0.042560000000     0.750000000000     0.457440000000     0          
Zr1106   Zr     0.957440000000     0.250000000000     0.457440000000     0          
Zr1107   Zr     0.957440000000     0.750000000000     0.542560000000     0          
Zr1108   Zr     0.042560000000     0.250000000000     0.542560000000     0          
Zr1109   Zr     0.457440000000     0.042560000000     0.750000000000     0          
Zr1110   Zr     0.457440000000     0.957440000000     0.250000000000     0          
Zr1111   Zr     0.542560000000     0.957440000000     0.750000000000     0          
Zr1112   Zr     0.542560000000     0.042560000000     0.250000000000     0          
Zr1113   Zr     0.750000000000     0.457440000000     0.042560000000     0          
Zr1114   Zr     0.250000000000     0.457440000000     0.957440000000     0          
Zr1115   Zr     0.750000000000     0.542560000000     0.957440000000     0          
Zr1116   Zr     0.250000000000     0.542560000000     0.042560000000     0          
Zr1117   Zr     0.957440000000     0.250000000000     0.542560000000     0          
Zr1118   Zr     0.042560000000     0.750000000000     0.542560000000     0          
Zr1119   Zr     0.042560000000     0.250000000000     0.457440000000     0          
Zr1120   Zr     0.957440000000     0.750000000000     0.457440000000     0          
Zr1121   Zr     0.542560000000     0.957440000000     0.250000000000     0          
Zr1122   Zr     0.542560000000     0.042560000000     0.750000000000     0          
Zr1123   Zr     0.457440000000     0.042560000000     0.250000000000     0          
Zr1124   Zr     0.457440000000     0.957440000000     0.750000000000     0          
Zr1125   Zr     0.250000000000     0.542560000000     0.957440000000     0          
Zr1126   Zr     0.750000000000     0.542560000000     0.042560000000     0          
Zr1127   Zr     0.250000000000     0.457440000000     0.042560000000     0          
Zr1128   Zr     0.750000000000     0.457440000000     0.957440000000     0          
C1129    C      0.244400000000     0.500000000000     0.103800000000     0          
C1130    C      0.233000000000     0.500000000000     0.136200000000     0          
C1131    C      0.157700000000     0.500000000000     0.287100000000     0          
C1132    C      0.204200000000     0.500000000000     0.201500000000     0          
C1133    C      0.122000000000     0.500000000000     0.343900000000     0          
H1134    H      0.110250000000     0.500000000000     0.363040000000     0          
C1135    C      0.189400000000     0.500000000000     0.233700000000     0          
C1136    C      0.175400000000     0.500000000000     0.257300000000     0          
C1137    C      0.755600000000     0.500000000000     0.103800000000     0          
C1138    C      0.767000000000     0.500000000000     0.136200000000     0          
C1139    C      0.842300000000     0.500000000000     0.287100000000     0          
C1140    C      0.795800000000     0.500000000000     0.201500000000     0          
C1141    C      0.878000000000     0.500000000000     0.343900000000     0          
H1142    H      0.889750000000     0.500000000000     0.363040000000     0          
C1143    C      0.810600000000     0.500000000000     0.233700000000     0          
C1144    C      0.824600000000     0.500000000000     0.257300000000     0          
C1145    C      0.755600000000     0.500000000000     0.896200000000     0          
C1146    C      0.767000000000     0.500000000000     0.863800000000     0          
C1147    C      0.842300000000     0.500000000000     0.712900000000     0          
C1148    C      0.795800000000     0.500000000000     0.798500000000     0          
C1149    C      0.878000000000     0.500000000000     0.656100000000     0          
H1150    H      0.889750000000     0.500000000000     0.636960000000     0          
C1151    C      0.810600000000     0.500000000000     0.766300000000     0          
C1152    C      0.824600000000     0.500000000000     0.742700000000     0          
C1153    C      0.244400000000     0.500000000000     0.896200000000     0          
C1154    C      0.233000000000     0.500000000000     0.863800000000     0          
C1155    C      0.157700000000     0.500000000000     0.712900000000     0          
C1156    C      0.204200000000     0.500000000000     0.798500000000     0          
C1157    C      0.122000000000     0.500000000000     0.656100000000     0          
H1158    H      0.110250000000     0.500000000000     0.636960000000     0          
C1159    C      0.189400000000     0.500000000000     0.766300000000     0          
C1160    C      0.175400000000     0.500000000000     0.742700000000     0          
C1161    C      0.103800000000     0.244400000000     0.500000000000     0          
C1162    C      0.136200000000     0.233000000000     0.500000000000     0          
C1163    C      0.287100000000     0.157700000000     0.500000000000     0          
C1164    C      0.201500000000     0.204200000000     0.500000000000     0          
C1165    C      0.343900000000     0.122000000000     0.500000000000     0          
H1166    H      0.363040000000     0.110250000000     0.500000000000     0          
C1167    C      0.233700000000     0.189400000000     0.500000000000     0          
C1168    C      0.257300000000     0.175400000000     0.500000000000     0          
C1169    C      0.103800000000     0.755600000000     0.500000000000     0          
C1170    C      0.136200000000     0.767000000000     0.500000000000     0          
C1171    C      0.287100000000     0.842300000000     0.500000000000     0          
C1172    C      0.201500000000     0.795800000000     0.500000000000     0          
C1173    C      0.343900000000     0.878000000000     0.500000000000     0          
H1174    H      0.363040000000     0.889750000000     0.500000000000     0          
C1175    C      0.233700000000     0.810600000000     0.500000000000     0          
C1176    C      0.257300000000     0.824600000000     0.500000000000     0          
C1177    C      0.896200000000     0.755600000000     0.500000000000     0          
C1178    C      0.863800000000     0.767000000000     0.500000000000     0          
C1179    C      0.712900000000     0.842300000000     0.500000000000     0          
C1180    C      0.798500000000     0.795800000000     0.500000000000     0          
C1181    C      0.656100000000     0.878000000000     0.500000000000     0          
H1182    H      0.636960000000     0.889750000000     0.500000000000     0          
C1183    C      0.766300000000     0.810600000000     0.500000000000     0          
C1184    C      0.742700000000     0.824600000000     0.500000000000     0          
C1185    C      0.896200000000     0.244400000000     0.500000000000     0          
C1186    C      0.863800000000     0.233000000000     0.500000000000     0          
C1187    C      0.712900000000     0.157700000000     0.500000000000     0          
C1188    C      0.798500000000     0.204200000000     0.500000000000     0          
C1189    C      0.656100000000     0.122000000000     0.500000000000     0          
H1190    H      0.636960000000     0.110250000000     0.500000000000     0          
C1191    C      0.766300000000     0.189400000000     0.500000000000     0          
C1192    C      0.742700000000     0.175400000000     0.500000000000     0          
C1193    C      0.500000000000     0.103800000000     0.244400000000     0          
C1194    C      0.500000000000     0.136200000000     0.233000000000     0          
C1195    C      0.500000000000     0.287100000000     0.157700000000     0          
C1196    C      0.500000000000     0.201500000000     0.204200000000     0          
C1197    C      0.500000000000     0.343900000000     0.122000000000     0          
H1198    H      0.500000000000     0.363040000000     0.110250000000     0          
C1199    C      0.500000000000     0.233700000000     0.189400000000     0          
C1200    C      0.500000000000     0.257300000000     0.175400000000     0          
C1201    C      0.500000000000     0.103800000000     0.755600000000     0          
C1202    C      0.500000000000     0.136200000000     0.767000000000     0          
C1203    C      0.500000000000     0.287100000000     0.842300000000     0          
C1204    C      0.500000000000     0.201500000000     0.795800000000     0          
C1205    C      0.500000000000     0.343900000000     0.878000000000     0          
H1206    H      0.500000000000     0.363040000000     0.889750000000     0          
C1207    C      0.500000000000     0.233700000000     0.810600000000     0          
C1208    C      0.500000000000     0.257300000000     0.824600000000     0          
C1209    C      0.500000000000     0.896200000000     0.755600000000     0          
C1210    C      0.500000000000     0.863800000000     0.767000000000     0          
C1211    C      0.500000000000     0.712900000000     0.842300000000     0          
C1212    C      0.500000000000     0.798500000000     0.795800000000     0          
C1213    C      0.500000000000     0.656100000000     0.878000000000     0          
H1214    H      0.500000000000     0.636960000000     0.889750000000     0          
C1215    C      0.500000000000     0.766300000000     0.810600000000     0          
C1216    C      0.500000000000     0.742700000000     0.824600000000     0          
C1217    C      0.500000000000     0.896200000000     0.244400000000     0          
C1218    C      0.500000000000     0.863800000000     0.233000000000     0          
C1219    C      0.500000000000     0.712900000000     0.157700000000     0          
C1220    C      0.500000000000     0.798500000000     0.204200000000     0          
C1221    C      0.500000000000     0.656100000000     0.122000000000     0          
H1222    H      0.500000000000     0.636960000000     0.110250000000     0          
C1223    C      0.500000000000     0.766300000000     0.189400000000     0          
C1224    C      0.500000000000     0.742700000000     0.175400000000     0          
C1225    C      0.000000000000     0.744400000000     0.396200000000     0          
C1226    C      0.000000000000     0.733000000000     0.363800000000     0          
C1227    C      0.000000000000     0.657700000000     0.212900000000     0          
C1228    C      0.000000000000     0.704200000000     0.298500000000     0          
C1229    C      0.000000000000     0.622000000000     0.156100000000     0          
H1230    H      0.000000000000     0.610250000000     0.136960000000     0          
C1231    C      0.000000000000     0.689400000000     0.266300000000     0          
C1232    C      0.000000000000     0.675400000000     0.242700000000     0          
C1233    C      0.000000000000     0.255600000000     0.396200000000     0          
C1234    C      0.000000000000     0.267000000000     0.363800000000     0          
C1235    C      0.000000000000     0.342300000000     0.212900000000     0          
C1236    C      0.000000000000     0.295800000000     0.298500000000     0          
C1237    C      0.000000000000     0.378000000000     0.156100000000     0          
H1238    H      0.000000000000     0.389750000000     0.136960000000     0          
C1239    C      0.000000000000     0.310600000000     0.266300000000     0          
C1240    C      0.000000000000     0.324600000000     0.242700000000     0          
C1241    C      0.000000000000     0.255600000000     0.603800000000     0          
C1242    C      0.000000000000     0.267000000000     0.636200000000     0          
C1243    C      0.000000000000     0.342300000000     0.787100000000     0          
C1244    C      0.000000000000     0.295800000000     0.701500000000     0          
C1245    C      0.000000000000     0.378000000000     0.843900000000     0          
H1246    H      0.000000000000     0.389750000000     0.863040000000     0          
C1247    C      0.000000000000     0.310600000000     0.733700000000     0          
C1248    C      0.000000000000     0.324600000000     0.757300000000     0          
C1249    C      0.000000000000     0.744400000000     0.603800000000     0          
C1250    C      0.000000000000     0.733000000000     0.636200000000     0          
C1251    C      0.000000000000     0.657700000000     0.787100000000     0          
C1252    C      0.000000000000     0.704200000000     0.701500000000     0          
C1253    C      0.000000000000     0.622000000000     0.843900000000     0          
H1254    H      0.000000000000     0.610250000000     0.863040000000     0          
C1255    C      0.000000000000     0.689400000000     0.733700000000     0          
C1256    C      0.000000000000     0.675400000000     0.757300000000     0          
C1257    C      0.744400000000     0.603800000000     0.000000000000     0          
C1258    C      0.733000000000     0.636200000000     0.000000000000     0          
C1259    C      0.657700000000     0.787100000000     0.000000000000     0          
C1260    C      0.704200000000     0.701500000000     0.000000000000     0          
C1261    C      0.622000000000     0.843900000000     0.000000000000     0          
H1262    H      0.610250000000     0.863040000000     0.000000000000     0          
C1263    C      0.689400000000     0.733700000000     0.000000000000     0          
C1264    C      0.675400000000     0.757300000000     0.000000000000     0          
C1265    C      0.255600000000     0.603800000000     0.000000000000     0          
C1266    C      0.267000000000     0.636200000000     0.000000000000     0          
C1267    C      0.342300000000     0.787100000000     0.000000000000     0          
C1268    C      0.295800000000     0.701500000000     0.000000000000     0          
C1269    C      0.378000000000     0.843900000000     0.000000000000     0          
H1270    H      0.389750000000     0.863040000000     0.000000000000     0          
C1271    C      0.310600000000     0.733700000000     0.000000000000     0          
C1272    C      0.324600000000     0.757300000000     0.000000000000     0          
C1273    C      0.255600000000     0.396200000000     0.000000000000     0          
C1274    C      0.267000000000     0.363800000000     0.000000000000     0          
C1275    C      0.342300000000     0.212900000000     0.000000000000     0          
C1276    C      0.295800000000     0.298500000000     0.000000000000     0          
C1277    C      0.378000000000     0.156100000000     0.000000000000     0          
H1278    H      0.389750000000     0.136960000000     0.000000000000     0          
C1279    C      0.310600000000     0.266300000000     0.000000000000     0          
C1280    C      0.324600000000     0.242700000000     0.000000000000     0          
C1281    C      0.744400000000     0.396200000000     0.000000000000     0          
C1282    C      0.733000000000     0.363800000000     0.000000000000     0          
C1283    C      0.657700000000     0.212900000000     0.000000000000     0          
C1284    C      0.704200000000     0.298500000000     0.000000000000     0          
C1285    C      0.622000000000     0.156100000000     0.000000000000     0          
H1286    H      0.610250000000     0.136960000000     0.000000000000     0          
C1287    C      0.689400000000     0.266300000000     0.000000000000     0          
C1288    C      0.675400000000     0.242700000000     0.000000000000     0          
C1289    C      0.603800000000     0.000000000000     0.255600000000     0          
C1290    C      0.636200000000     0.000000000000     0.267000000000     0          
C1291    C      0.787100000000     0.000000000000     0.342300000000     0          
C1292    C      0.701500000000     0.000000000000     0.295800000000     0          
C1293    C      0.843900000000     0.000000000000     0.378000000000     0          
H1294    H      0.863040000000     0.000000000000     0.389750000000     0          
C1295    C      0.733700000000     0.000000000000     0.310600000000     0          
C1296    C      0.757300000000     0.000000000000     0.324600000000     0          
C1297    C      0.603800000000     0.000000000000     0.744400000000     0          
C1298    C      0.636200000000     0.000000000000     0.733000000000     0          
C1299    C      0.787100000000     0.000000000000     0.657700000000     0          
C1300    C      0.701500000000     0.000000000000     0.704200000000     0          
C1301    C      0.843900000000     0.000000000000     0.622000000000     0          
H1302    H      0.863040000000     0.000000000000     0.610250000000     0          
C1303    C      0.733700000000     0.000000000000     0.689400000000     0          
C1304    C      0.757300000000     0.000000000000     0.675400000000     0          
C1305    C      0.396200000000     0.000000000000     0.744400000000     0          
C1306    C      0.363800000000     0.000000000000     0.733000000000     0          
C1307    C      0.212900000000     0.000000000000     0.657700000000     0          
C1308    C      0.298500000000     0.000000000000     0.704200000000     0          
C1309    C      0.156100000000     0.000000000000     0.622000000000     0          
H1310    H      0.136960000000     0.000000000000     0.610250000000     0          
C1311    C      0.266300000000     0.000000000000     0.689400000000     0          
C1312    C      0.242700000000     0.000000000000     0.675400000000     0          
C1313    C      0.396200000000     0.000000000000     0.255600000000     0          
C1314    C      0.363800000000     0.000000000000     0.267000000000     0          
C1315    C      0.212900000000     0.000000000000     0.342300000000     0          
C1316    C      0.298500000000     0.000000000000     0.295800000000     0          
C1317    C      0.156100000000     0.000000000000     0.378000000000     0          
H1318    H      0.136960000000     0.000000000000     0.389750000000     0          
C1319    C      0.266300000000     0.000000000000     0.310600000000     0          
C1320    C      0.242700000000     0.000000000000     0.324600000000     0          
Zr1321   Zr     0.000000000000     0.689910000000     0.500000000000     0          
Zr1322   Zr     0.000000000000     0.310090000000     0.500000000000     0          
Zr1323   Zr     0.500000000000     0.000000000000     0.689910000000     0          
Zr1324   Zr     0.500000000000     0.000000000000     0.310090000000     0          
Zr1325   Zr     0.689910000000     0.500000000000     0.000000000000     0          
Zr1326   Zr     0.310090000000     0.500000000000     0.000000000000     0          
Zr1327   Zr     0.189910000000     0.500000000000     0.000000000000     0          
Zr1328   Zr     0.810090000000     0.500000000000     0.000000000000     0          
Zr1329   Zr     0.500000000000     0.000000000000     0.810090000000     0          
Zr1330   Zr     0.500000000000     0.000000000000     0.189910000000     0          
Zr1331   Zr     0.000000000000     0.189910000000     0.500000000000     0          
Zr1332   Zr     0.000000000000     0.810090000000     0.500000000000     0          
O1333    O      0.047860000000     0.716130000000     0.500000000000     0          
H1334    H      0.067440000000     0.703030000000     0.500000000000     0          
O1335    O      0.952140000000     0.283870000000     0.500000000000     0          
H1336    H      0.932560000000     0.296970000000     0.500000000000     0          
O1337    O      0.952140000000     0.716130000000     0.500000000000     0          
H1338    H      0.932560000000     0.703030000000     0.500000000000     0          
O1339    O      0.047860000000     0.283870000000     0.500000000000     0          
H1340    H      0.067440000000     0.296970000000     0.500000000000     0          
O1341    O      0.500000000000     0.047860000000     0.716130000000     0          
H1342    H      0.500000000000     0.067440000000     0.703030000000     0          
O1343    O      0.500000000000     0.952140000000     0.283870000000     0          
H1344    H      0.500000000000     0.932560000000     0.296970000000     0          
O1345    O      0.500000000000     0.952140000000     0.716130000000     0          
H1346    H      0.500000000000     0.932560000000     0.703030000000     0          
O1347    O      0.500000000000     0.047860000000     0.283870000000     0          
H1348    H      0.500000000000     0.067440000000     0.296970000000     0          
O1349    O      0.716130000000     0.500000000000     0.047860000000     0          
H1350    H      0.703030000000     0.500000000000     0.067440000000     0          
O1351    O      0.283870000000     0.500000000000     0.952140000000     0          
H1352    H      0.296970000000     0.500000000000     0.932560000000     0          
O1353    O      0.716130000000     0.500000000000     0.952140000000     0          
H1354    H      0.703030000000     0.500000000000     0.932560000000     0          
O1355    O      0.283870000000     0.500000000000     0.047860000000     0          
H1356    H      0.296970000000     0.500000000000     0.067440000000     0          
O1357    O      0.216130000000     0.547860000000     0.000000000000     0          
H1358    H      0.203030000000     0.567440000000     0.000000000000     0          
O1359    O      0.783870000000     0.452140000000     0.000000000000     0          
H1360    H      0.796970000000     0.432560000000     0.000000000000     0          
O1361    O      0.216130000000     0.452140000000     0.000000000000     0          
H1362    H      0.203030000000     0.432560000000     0.000000000000     0          
O1363    O      0.783870000000     0.547860000000     0.000000000000     0          
H1364    H      0.796970000000     0.567440000000     0.000000000000     0          
O1365    O      0.547860000000     0.000000000000     0.783870000000     0          
H1366    H      0.567440000000     0.000000000000     0.796970000000     0          
O1367    O      0.452140000000     0.000000000000     0.216130000000     0          
H1368    H      0.432560000000     0.000000000000     0.203030000000     0          
O1369    O      0.452140000000     0.000000000000     0.783870000000     0          
H1370    H      0.432560000000     0.000000000000     0.796970000000     0          
O1371    O      0.547860000000     0.000000000000     0.216130000000     0          
H1372    H      0.567440000000     0.000000000000     0.203030000000     0          
O1373    O      0.000000000000     0.216130000000     0.452140000000     0          
H1374    H      0.000000000000     0.203030000000     0.432560000000     0          
O1375    O      0.000000000000     0.783870000000     0.547860000000     0          
H1376    H      0.000000000000     0.796970000000     0.567440000000     0          
O1377    O      0.000000000000     0.216130000000     0.547860000000     0          
H1378    H      0.000000000000     0.203030000000     0.567440000000     0          
O1379    O      0.000000000000     0.783870000000     0.452140000000     0          
H1380    H      0.000000000000     0.796970000000     0.432560000000     0          
O1381    O      0.000000000000     0.724430000000     0.463480000000     0          
O1382    O      0.000000000000     0.275570000000     0.463480000000     0          
O1383    O      0.000000000000     0.724430000000     0.536520000000     0          
O1384    O      0.000000000000     0.275570000000     0.536520000000     0          
O1385    O      0.463480000000     0.000000000000     0.724430000000     0          
O1386    O      0.463480000000     0.000000000000     0.275570000000     0          
O1387    O      0.536520000000     0.000000000000     0.724430000000     0          
O1388    O      0.536520000000     0.000000000000     0.275570000000     0          
O1389    O      0.724430000000     0.463480000000     0.000000000000     0          
O1390    O      0.275570000000     0.463480000000     0.000000000000     0          
O1391    O      0.724430000000     0.536520000000     0.000000000000     0          
O1392    O      0.275570000000     0.536520000000     0.000000000000     0          
O1393    O      0.224430000000     0.500000000000     0.036520000000     0          
O1394    O      0.775570000000     0.500000000000     0.036520000000     0          
O1395    O      0.224430000000     0.500000000000     0.963480000000     0          
O1396    O      0.775570000000     0.500000000000     0.963480000000     0          
O1397    O      0.500000000000     0.963480000000     0.775570000000     0          
O1398    O      0.500000000000     0.963480000000     0.224430000000     0          
O1399    O      0.500000000000     0.036520000000     0.775570000000     0          
O1400    O      0.500000000000     0.036520000000     0.224430000000     0          
O1401    O      0.963480000000     0.224430000000     0.500000000000     0          
O1402    O      0.963480000000     0.775570000000     0.500000000000     0          
O1403    O      0.036520000000     0.224430000000     0.500000000000     0          
O1404    O      0.036520000000     0.775570000000     0.500000000000     0          


