data_UFORAL

_audit_creation_method RASPA-1.0
_audit_creation_date 2020-11-2
_audit_author_name 'Rocio Bueno-Perez'

_cell_length_a    40.561
_cell_length_b    40.561
_cell_length_c    40.561
_cell_angle_alpha 90
_cell_angle_beta  90
_cell_angle_gamma 90
_cell_volume      66730.7

_symmetry_cell_setting          triclinic
_symmetry_space_group_name_Hall 'P 1'
_symmetry_space_group_name_H-M  'P 1'
_symmetry_Int_Tables_number     1

_symmetry_equiv_pos_as_xyz 'x,y,z'

loop_
_atom_site_label
_atom_site_type_symbol
_atom_site_fract_x
_atom_site_fract_y
_atom_site_fract_z
_atom_site_charge
O1       O      0.031500000000     0.660000000000     0.469100000000     0          
C2       C      0.161900000000     0.531400000000     0.306800000000     0          
H3       H      0.167230000000     0.551360000000     0.295760000000     0          
C4       C      0.143500000000     0.530700000000     0.336000000000     0          
C5       C      0.134000000000     0.561600000000     0.352700000000     0          
O6       O      0.062700000000     0.705700000000     0.435700000000     0          
C7       C      0.083800000000     0.594100000000     0.414000000000     0          
H8       H      0.081370000000     0.571050000000     0.417630000000     0          
C9       C      0.104700000000     0.605400000000     0.389300000000     0          
C10      C      0.108300000000     0.639000000000     0.384000000000     0          
H11      H      0.122620000000     0.646750000000     0.367110000000     0          
C12      C      0.090900000000     0.661400000000     0.403200000000     0          
H13      H      0.093330000000     0.684380000000     0.399580000000     0          
C14      C      0.069900000000     0.650100000000     0.427900000000     0          
C15      C      0.066400000000     0.616400000000     0.433300000000     0          
H16      H      0.052080000000     0.608680000000     0.450100000000     0          
C17      C      0.052300000000     0.673100000000     0.449100000000     0          
C18      C      0.126000000000     0.581500000000     0.371600000000     0          
O19      O      0.248200000000     0.468900000000     0.094700000000     0          
C20      C      0.224600000000     0.529100000000     0.192300000000     0          
H21      H      0.224890000000     0.549220000000     0.204390000000     0          
C22      C      0.232800000000     0.528300000000     0.158700000000     0          
H23      H      0.239050000000     0.548210000000     0.148120000000     0          
O24      O      0.968500000000     0.340000000000     0.469100000000     0          
C25      C      0.838100000000     0.468600000000     0.306800000000     0          
H26      H      0.832770000000     0.448640000000     0.295760000000     0          
C27      C      0.856500000000     0.469300000000     0.336000000000     0          
C28      C      0.866000000000     0.438400000000     0.352700000000     0          
O29      O      0.937300000000     0.294300000000     0.435700000000     0          
C30      C      0.916200000000     0.405900000000     0.414000000000     0          
H31      H      0.918630000000     0.428950000000     0.417630000000     0          
C32      C      0.895300000000     0.394600000000     0.389300000000     0          
C33      C      0.891700000000     0.361000000000     0.384000000000     0          
H34      H      0.877380000000     0.353250000000     0.367110000000     0          
C35      C      0.909100000000     0.338600000000     0.403200000000     0          
H36      H      0.906670000000     0.315620000000     0.399580000000     0          
C37      C      0.930100000000     0.349900000000     0.427900000000     0          
C38      C      0.933600000000     0.383600000000     0.433300000000     0          
H39      H      0.947920000000     0.391320000000     0.450100000000     0          
C40      C      0.947700000000     0.326900000000     0.449100000000     0          
C41      C      0.874000000000     0.418500000000     0.371600000000     0          
O42      O      0.751800000000     0.531100000000     0.094700000000     0          
C43      C      0.775400000000     0.470900000000     0.192300000000     0          
H44      H      0.775110000000     0.450780000000     0.204390000000     0          
C45      C      0.767200000000     0.471700000000     0.158700000000     0          
H46      H      0.760950000000     0.451790000000     0.148120000000     0          
O47      O      0.968500000000     0.660000000000     0.530900000000     0          
C48      C      0.838100000000     0.531400000000     0.693200000000     0          
H49      H      0.832770000000     0.551360000000     0.704240000000     0          
C50      C      0.856500000000     0.530700000000     0.664000000000     0          
C51      C      0.866000000000     0.561600000000     0.647300000000     0          
O52      O      0.937300000000     0.705700000000     0.564300000000     0          
C53      C      0.916200000000     0.594100000000     0.586000000000     0          
H54      H      0.918630000000     0.571050000000     0.582370000000     0          
C55      C      0.895300000000     0.605400000000     0.610700000000     0          
C56      C      0.891700000000     0.639000000000     0.616000000000     0          
H57      H      0.877380000000     0.646750000000     0.632890000000     0          
C58      C      0.909100000000     0.661400000000     0.596800000000     0          
H59      H      0.906670000000     0.684380000000     0.600420000000     0          
C60      C      0.930100000000     0.650100000000     0.572100000000     0          
C61      C      0.933600000000     0.616400000000     0.566700000000     0          
H62      H      0.947920000000     0.608680000000     0.549900000000     0          
C63      C      0.947700000000     0.673100000000     0.550900000000     0          
C64      C      0.874000000000     0.581500000000     0.628400000000     0          
O65      O      0.751800000000     0.468900000000     0.905300000000     0          
C66      C      0.775400000000     0.529100000000     0.807700000000     0          
H67      H      0.775110000000     0.549220000000     0.795610000000     0          
C68      C      0.767200000000     0.528300000000     0.841300000000     0          
H69      H      0.760950000000     0.548210000000     0.851880000000     0          
O70      O      0.031500000000     0.340000000000     0.530900000000     0          
C71      C      0.161900000000     0.468600000000     0.693200000000     0          
H72      H      0.167230000000     0.448640000000     0.704240000000     0          
C73      C      0.143500000000     0.469300000000     0.664000000000     0          
C74      C      0.134000000000     0.438400000000     0.647300000000     0          
O75      O      0.062700000000     0.294300000000     0.564300000000     0          
C76      C      0.083800000000     0.405900000000     0.586000000000     0          
H77      H      0.081370000000     0.428950000000     0.582370000000     0          
C78      C      0.104700000000     0.394600000000     0.610700000000     0          
C79      C      0.108300000000     0.361000000000     0.616000000000     0          
H80      H      0.122620000000     0.353250000000     0.632890000000     0          
C81      C      0.090900000000     0.338600000000     0.596800000000     0          
H82      H      0.093330000000     0.315620000000     0.600420000000     0          
C83      C      0.069900000000     0.349900000000     0.572100000000     0          
C84      C      0.066400000000     0.383600000000     0.566700000000     0          
H85      H      0.052080000000     0.391320000000     0.549900000000     0          
C86      C      0.052300000000     0.326900000000     0.550900000000     0          
C87      C      0.126000000000     0.418500000000     0.628400000000     0          
O88      O      0.248200000000     0.531100000000     0.905300000000     0          
C89      C      0.224600000000     0.470900000000     0.807700000000     0          
H90      H      0.224890000000     0.450780000000     0.795610000000     0          
C91      C      0.232800000000     0.471700000000     0.841300000000     0          
H92      H      0.239050000000     0.451790000000     0.851880000000     0          
O93      O      0.469100000000     0.031500000000     0.660000000000     0          
C94      C      0.306800000000     0.161900000000     0.531400000000     0          
H95      H      0.295760000000     0.167230000000     0.551360000000     0          
C96      C      0.336000000000     0.143500000000     0.530700000000     0          
C97      C      0.352700000000     0.134000000000     0.561600000000     0          
O98      O      0.435700000000     0.062700000000     0.705700000000     0          
C99      C      0.414000000000     0.083800000000     0.594100000000     0          
H100     H      0.417630000000     0.081370000000     0.571050000000     0          
C101     C      0.389300000000     0.104700000000     0.605400000000     0          
C102     C      0.384000000000     0.108300000000     0.639000000000     0          
H103     H      0.367110000000     0.122620000000     0.646750000000     0          
C104     C      0.403200000000     0.090900000000     0.661400000000     0          
H105     H      0.399580000000     0.093330000000     0.684380000000     0          
C106     C      0.427900000000     0.069900000000     0.650100000000     0          
C107     C      0.433300000000     0.066400000000     0.616400000000     0          
H108     H      0.450100000000     0.052080000000     0.608680000000     0          
C109     C      0.449100000000     0.052300000000     0.673100000000     0          
C110     C      0.371600000000     0.126000000000     0.581500000000     0          
O111     O      0.094700000000     0.248200000000     0.468900000000     0          
C112     C      0.192300000000     0.224600000000     0.529100000000     0          
H113     H      0.204390000000     0.224890000000     0.549220000000     0          
C114     C      0.158700000000     0.232800000000     0.528300000000     0          
H115     H      0.148120000000     0.239050000000     0.548210000000     0          
O116     O      0.469100000000     0.968500000000     0.340000000000     0          
C117     C      0.306800000000     0.838100000000     0.468600000000     0          
H118     H      0.295760000000     0.832770000000     0.448640000000     0          
C119     C      0.336000000000     0.856500000000     0.469300000000     0          
C120     C      0.352700000000     0.866000000000     0.438400000000     0          
O121     O      0.435700000000     0.937300000000     0.294300000000     0          
C122     C      0.414000000000     0.916200000000     0.405900000000     0          
H123     H      0.417630000000     0.918630000000     0.428950000000     0          
C124     C      0.389300000000     0.895300000000     0.394600000000     0          
C125     C      0.384000000000     0.891700000000     0.361000000000     0          
H126     H      0.367110000000     0.877380000000     0.353250000000     0          
C127     C      0.403200000000     0.909100000000     0.338600000000     0          
H128     H      0.399580000000     0.906670000000     0.315620000000     0          
C129     C      0.427900000000     0.930100000000     0.349900000000     0          
C130     C      0.433300000000     0.933600000000     0.383600000000     0          
H131     H      0.450100000000     0.947920000000     0.391320000000     0          
C132     C      0.449100000000     0.947700000000     0.326900000000     0          
C133     C      0.371600000000     0.874000000000     0.418500000000     0          
O134     O      0.094700000000     0.751800000000     0.531100000000     0          
C135     C      0.192300000000     0.775400000000     0.470900000000     0          
H136     H      0.204390000000     0.775110000000     0.450780000000     0          
C137     C      0.158700000000     0.767200000000     0.471700000000     0          
H138     H      0.148120000000     0.760950000000     0.451790000000     0          
O139     O      0.530900000000     0.968500000000     0.660000000000     0          
C140     C      0.693200000000     0.838100000000     0.531400000000     0          
H141     H      0.704240000000     0.832770000000     0.551360000000     0          
C142     C      0.664000000000     0.856500000000     0.530700000000     0          
C143     C      0.647300000000     0.866000000000     0.561600000000     0          
O144     O      0.564300000000     0.937300000000     0.705700000000     0          
C145     C      0.586000000000     0.916200000000     0.594100000000     0          
H146     H      0.582370000000     0.918630000000     0.571050000000     0          
C147     C      0.610700000000     0.895300000000     0.605400000000     0          
C148     C      0.616000000000     0.891700000000     0.639000000000     0          
H149     H      0.632890000000     0.877380000000     0.646750000000     0          
C150     C      0.596800000000     0.909100000000     0.661400000000     0          
H151     H      0.600420000000     0.906670000000     0.684380000000     0          
C152     C      0.572100000000     0.930100000000     0.650100000000     0          
C153     C      0.566700000000     0.933600000000     0.616400000000     0          
H154     H      0.549900000000     0.947920000000     0.608680000000     0          
C155     C      0.550900000000     0.947700000000     0.673100000000     0          
C156     C      0.628400000000     0.874000000000     0.581500000000     0          
O157     O      0.905300000000     0.751800000000     0.468900000000     0          
C158     C      0.807700000000     0.775400000000     0.529100000000     0          
H159     H      0.795610000000     0.775110000000     0.549220000000     0          
C160     C      0.841300000000     0.767200000000     0.528300000000     0          
H161     H      0.851880000000     0.760950000000     0.548210000000     0          
O162     O      0.530900000000     0.031500000000     0.340000000000     0          
C163     C      0.693200000000     0.161900000000     0.468600000000     0          
H164     H      0.704240000000     0.167230000000     0.448640000000     0          
C165     C      0.664000000000     0.143500000000     0.469300000000     0          
C166     C      0.647300000000     0.134000000000     0.438400000000     0          
O167     O      0.564300000000     0.062700000000     0.294300000000     0          
C168     C      0.586000000000     0.083800000000     0.405900000000     0          
H169     H      0.582370000000     0.081370000000     0.428950000000     0          
C170     C      0.610700000000     0.104700000000     0.394600000000     0          
C171     C      0.616000000000     0.108300000000     0.361000000000     0          
H172     H      0.632890000000     0.122620000000     0.353250000000     0          
C173     C      0.596800000000     0.090900000000     0.338600000000     0          
H174     H      0.600420000000     0.093330000000     0.315620000000     0          
C175     C      0.572100000000     0.069900000000     0.349900000000     0          
C176     C      0.566700000000     0.066400000000     0.383600000000     0          
H177     H      0.549900000000     0.052080000000     0.391320000000     0          
C178     C      0.550900000000     0.052300000000     0.326900000000     0          
C179     C      0.628400000000     0.126000000000     0.418500000000     0          
O180     O      0.905300000000     0.248200000000     0.531100000000     0          
C181     C      0.807700000000     0.224600000000     0.470900000000     0          
H182     H      0.795610000000     0.224890000000     0.450780000000     0          
C183     C      0.841300000000     0.232800000000     0.471700000000     0          
H184     H      0.851880000000     0.239050000000     0.451790000000     0          
O185     O      0.660000000000     0.469100000000     0.031500000000     0          
C186     C      0.531400000000     0.306800000000     0.161900000000     0          
H187     H      0.551360000000     0.295760000000     0.167230000000     0          
C188     C      0.530700000000     0.336000000000     0.143500000000     0          
C189     C      0.561600000000     0.352700000000     0.134000000000     0          
O190     O      0.705700000000     0.435700000000     0.062700000000     0          
C191     C      0.594100000000     0.414000000000     0.083800000000     0          
H192     H      0.571050000000     0.417630000000     0.081370000000     0          
C193     C      0.605400000000     0.389300000000     0.104700000000     0          
C194     C      0.639000000000     0.384000000000     0.108300000000     0          
H195     H      0.646750000000     0.367110000000     0.122620000000     0          
C196     C      0.661400000000     0.403200000000     0.090900000000     0          
H197     H      0.684380000000     0.399580000000     0.093330000000     0          
C198     C      0.650100000000     0.427900000000     0.069900000000     0          
C199     C      0.616400000000     0.433300000000     0.066400000000     0          
H200     H      0.608680000000     0.450100000000     0.052080000000     0          
C201     C      0.673100000000     0.449100000000     0.052300000000     0          
C202     C      0.581500000000     0.371600000000     0.126000000000     0          
O203     O      0.468900000000     0.094700000000     0.248200000000     0          
C204     C      0.529100000000     0.192300000000     0.224600000000     0          
H205     H      0.549220000000     0.204390000000     0.224890000000     0          
C206     C      0.528300000000     0.158700000000     0.232800000000     0          
H207     H      0.548210000000     0.148120000000     0.239050000000     0          
O208     O      0.340000000000     0.469100000000     0.968500000000     0          
C209     C      0.468600000000     0.306800000000     0.838100000000     0          
H210     H      0.448640000000     0.295760000000     0.832770000000     0          
C211     C      0.469300000000     0.336000000000     0.856500000000     0          
C212     C      0.438400000000     0.352700000000     0.866000000000     0          
O213     O      0.294300000000     0.435700000000     0.937300000000     0          
C214     C      0.405900000000     0.414000000000     0.916200000000     0          
H215     H      0.428950000000     0.417630000000     0.918630000000     0          
C216     C      0.394600000000     0.389300000000     0.895300000000     0          
C217     C      0.361000000000     0.384000000000     0.891700000000     0          
H218     H      0.353250000000     0.367110000000     0.877380000000     0          
C219     C      0.338600000000     0.403200000000     0.909100000000     0          
H220     H      0.315620000000     0.399580000000     0.906670000000     0          
C221     C      0.349900000000     0.427900000000     0.930100000000     0          
C222     C      0.383600000000     0.433300000000     0.933600000000     0          
H223     H      0.391320000000     0.450100000000     0.947920000000     0          
C224     C      0.326900000000     0.449100000000     0.947700000000     0          
C225     C      0.418500000000     0.371600000000     0.874000000000     0          
O226     O      0.531100000000     0.094700000000     0.751800000000     0          
C227     C      0.470900000000     0.192300000000     0.775400000000     0          
H228     H      0.450780000000     0.204390000000     0.775110000000     0          
C229     C      0.471700000000     0.158700000000     0.767200000000     0          
H230     H      0.451790000000     0.148120000000     0.760950000000     0          
O231     O      0.660000000000     0.530900000000     0.968500000000     0          
C232     C      0.531400000000     0.693200000000     0.838100000000     0          
H233     H      0.551360000000     0.704240000000     0.832770000000     0          
C234     C      0.530700000000     0.664000000000     0.856500000000     0          
C235     C      0.561600000000     0.647300000000     0.866000000000     0          
O236     O      0.705700000000     0.564300000000     0.937300000000     0          
C237     C      0.594100000000     0.586000000000     0.916200000000     0          
H238     H      0.571050000000     0.582370000000     0.918630000000     0          
C239     C      0.605400000000     0.610700000000     0.895300000000     0          
C240     C      0.639000000000     0.616000000000     0.891700000000     0          
H241     H      0.646750000000     0.632890000000     0.877380000000     0          
C242     C      0.661400000000     0.596800000000     0.909100000000     0          
H243     H      0.684380000000     0.600420000000     0.906670000000     0          
C244     C      0.650100000000     0.572100000000     0.930100000000     0          
C245     C      0.616400000000     0.566700000000     0.933600000000     0          
H246     H      0.608680000000     0.549900000000     0.947920000000     0          
C247     C      0.673100000000     0.550900000000     0.947700000000     0          
C248     C      0.581500000000     0.628400000000     0.874000000000     0          
O249     O      0.468900000000     0.905300000000     0.751800000000     0          
C250     C      0.529100000000     0.807700000000     0.775400000000     0          
H251     H      0.549220000000     0.795610000000     0.775110000000     0          
C252     C      0.528300000000     0.841300000000     0.767200000000     0          
H253     H      0.548210000000     0.851880000000     0.760950000000     0          
O254     O      0.340000000000     0.530900000000     0.031500000000     0          
C255     C      0.468600000000     0.693200000000     0.161900000000     0          
H256     H      0.448640000000     0.704240000000     0.167230000000     0          
C257     C      0.469300000000     0.664000000000     0.143500000000     0          
C258     C      0.438400000000     0.647300000000     0.134000000000     0          
O259     O      0.294300000000     0.564300000000     0.062700000000     0          
C260     C      0.405900000000     0.586000000000     0.083800000000     0          
H261     H      0.428950000000     0.582370000000     0.081370000000     0          
C262     C      0.394600000000     0.610700000000     0.104700000000     0          
C263     C      0.361000000000     0.616000000000     0.108300000000     0          
H264     H      0.353250000000     0.632890000000     0.122620000000     0          
C265     C      0.338600000000     0.596800000000     0.090900000000     0          
H266     H      0.315620000000     0.600420000000     0.093330000000     0          
C267     C      0.349900000000     0.572100000000     0.069900000000     0          
C268     C      0.383600000000     0.566700000000     0.066400000000     0          
H269     H      0.391320000000     0.549900000000     0.052080000000     0          
C270     C      0.326900000000     0.550900000000     0.052300000000     0          
C271     C      0.418500000000     0.628400000000     0.126000000000     0          
O272     O      0.531100000000     0.905300000000     0.248200000000     0          
C273     C      0.470900000000     0.807700000000     0.224600000000     0          
H274     H      0.450780000000     0.795610000000     0.224890000000     0          
C275     C      0.471700000000     0.841300000000     0.232800000000     0          
H276     H      0.451790000000     0.851880000000     0.239050000000     0          
O277     O      0.160000000000     0.531500000000     0.030900000000     0          
C278     C      0.031400000000     0.661900000000     0.193200000000     0          
H279     H      0.051360000000     0.667230000000     0.204240000000     0          
C280     C      0.030700000000     0.643500000000     0.164000000000     0          
C281     C      0.061600000000     0.634000000000     0.147300000000     0          
O282     O      0.205700000000     0.562700000000     0.064300000000     0          
C283     C      0.094100000000     0.583800000000     0.086000000000     0          
H284     H      0.071050000000     0.581370000000     0.082370000000     0          
C285     C      0.105400000000     0.604700000000     0.110700000000     0          
C286     C      0.139000000000     0.608300000000     0.116000000000     0          
H287     H      0.146750000000     0.622620000000     0.132890000000     0          
C288     C      0.161400000000     0.590900000000     0.096800000000     0          
H289     H      0.184380000000     0.593330000000     0.100420000000     0          
C290     C      0.150100000000     0.569900000000     0.072100000000     0          
C291     C      0.116400000000     0.566400000000     0.066700000000     0          
H292     H      0.108680000000     0.552080000000     0.049900000000     0          
C293     C      0.173100000000     0.552300000000     0.050900000000     0          
C294     C      0.081500000000     0.626000000000     0.128400000000     0          
O295     O      0.968900000000     0.748200000000     0.405300000000     0          
C296     C      0.029100000000     0.724600000000     0.307700000000     0          
H297     H      0.049220000000     0.724890000000     0.295610000000     0          
C298     C      0.028300000000     0.732800000000     0.341300000000     0          
H299     H      0.048210000000     0.739050000000     0.351880000000     0          
O300     O      0.840000000000     0.468500000000     0.030900000000     0          
C301     C      0.968600000000     0.338100000000     0.193200000000     0          
H302     H      0.948640000000     0.332770000000     0.204240000000     0          
C303     C      0.969300000000     0.356500000000     0.164000000000     0          
C304     C      0.938400000000     0.366000000000     0.147300000000     0          
O305     O      0.794300000000     0.437300000000     0.064300000000     0          
C306     C      0.905900000000     0.416200000000     0.086000000000     0          
H307     H      0.928950000000     0.418630000000     0.082370000000     0          
C308     C      0.894600000000     0.395300000000     0.110700000000     0          
C309     C      0.861000000000     0.391700000000     0.116000000000     0          
H310     H      0.853250000000     0.377380000000     0.132890000000     0          
C311     C      0.838600000000     0.409100000000     0.096800000000     0          
H312     H      0.815620000000     0.406670000000     0.100420000000     0          
C313     C      0.849900000000     0.430100000000     0.072100000000     0          
C314     C      0.883600000000     0.433600000000     0.066700000000     0          
H315     H      0.891320000000     0.447920000000     0.049900000000     0          
C316     C      0.826900000000     0.447700000000     0.050900000000     0          
C317     C      0.918500000000     0.374000000000     0.128400000000     0          
O318     O      0.031100000000     0.251800000000     0.405300000000     0          
C319     C      0.970900000000     0.275400000000     0.307700000000     0          
H320     H      0.950780000000     0.275110000000     0.295610000000     0          
C321     C      0.971700000000     0.267200000000     0.341300000000     0          
H322     H      0.951790000000     0.260950000000     0.351880000000     0          
O323     O      0.160000000000     0.468500000000     0.969100000000     0          
C324     C      0.031400000000     0.338100000000     0.806800000000     0          
H325     H      0.051360000000     0.332770000000     0.795760000000     0          
C326     C      0.030700000000     0.356500000000     0.836000000000     0          
C327     C      0.061600000000     0.366000000000     0.852700000000     0          
O328     O      0.205700000000     0.437300000000     0.935700000000     0          
C329     C      0.094100000000     0.416200000000     0.914000000000     0          
H330     H      0.071050000000     0.418630000000     0.917630000000     0          
C331     C      0.105400000000     0.395300000000     0.889300000000     0          
C332     C      0.139000000000     0.391700000000     0.884000000000     0          
H333     H      0.146750000000     0.377380000000     0.867110000000     0          
C334     C      0.161400000000     0.409100000000     0.903200000000     0          
H335     H      0.184380000000     0.406670000000     0.899580000000     0          
C336     C      0.150100000000     0.430100000000     0.927900000000     0          
C337     C      0.116400000000     0.433600000000     0.933300000000     0          
H338     H      0.108680000000     0.447920000000     0.950100000000     0          
C339     C      0.173100000000     0.447700000000     0.949100000000     0          
C340     C      0.081500000000     0.374000000000     0.871600000000     0          
O341     O      0.968900000000     0.251800000000     0.594700000000     0          
C342     C      0.029100000000     0.275400000000     0.692300000000     0          
H343     H      0.049220000000     0.275110000000     0.704390000000     0          
C344     C      0.028300000000     0.267200000000     0.658700000000     0          
H345     H      0.048210000000     0.260950000000     0.648120000000     0          
O346     O      0.840000000000     0.531500000000     0.969100000000     0          
C347     C      0.968600000000     0.661900000000     0.806800000000     0          
H348     H      0.948640000000     0.667230000000     0.795760000000     0          
C349     C      0.969300000000     0.643500000000     0.836000000000     0          
C350     C      0.938400000000     0.634000000000     0.852700000000     0          
O351     O      0.794300000000     0.562700000000     0.935700000000     0          
C352     C      0.905900000000     0.583800000000     0.914000000000     0          
H353     H      0.928950000000     0.581370000000     0.917630000000     0          
C354     C      0.894600000000     0.604700000000     0.889300000000     0          
C355     C      0.861000000000     0.608300000000     0.884000000000     0          
H356     H      0.853250000000     0.622620000000     0.867110000000     0          
C357     C      0.838600000000     0.590900000000     0.903200000000     0          
H358     H      0.815620000000     0.593330000000     0.899580000000     0          
C359     C      0.849900000000     0.569900000000     0.927900000000     0          
C360     C      0.883600000000     0.566400000000     0.933300000000     0          
H361     H      0.891320000000     0.552080000000     0.950100000000     0          
C362     C      0.826900000000     0.552300000000     0.949100000000     0          
C363     C      0.918500000000     0.626000000000     0.871600000000     0          
O364     O      0.031100000000     0.748200000000     0.594700000000     0          
C365     C      0.970900000000     0.724600000000     0.692300000000     0          
H366     H      0.950780000000     0.724890000000     0.704390000000     0          
C367     C      0.971700000000     0.732800000000     0.658700000000     0          
H368     H      0.951790000000     0.739050000000     0.648120000000     0          
O369     O      0.531500000000     0.969100000000     0.840000000000     0          
C370     C      0.661900000000     0.806800000000     0.968600000000     0          
H371     H      0.667230000000     0.795760000000     0.948640000000     0          
C372     C      0.643500000000     0.836000000000     0.969300000000     0          
C373     C      0.634000000000     0.852700000000     0.938400000000     0          
O374     O      0.562700000000     0.935700000000     0.794300000000     0          
C375     C      0.583800000000     0.914000000000     0.905900000000     0          
H376     H      0.581370000000     0.917630000000     0.928950000000     0          
C377     C      0.604700000000     0.889300000000     0.894600000000     0          
C378     C      0.608300000000     0.884000000000     0.861000000000     0          
H379     H      0.622620000000     0.867110000000     0.853250000000     0          
C380     C      0.590900000000     0.903200000000     0.838600000000     0          
H381     H      0.593330000000     0.899580000000     0.815620000000     0          
C382     C      0.569900000000     0.927900000000     0.849900000000     0          
C383     C      0.566400000000     0.933300000000     0.883600000000     0          
H384     H      0.552080000000     0.950100000000     0.891320000000     0          
C385     C      0.552300000000     0.949100000000     0.826900000000     0          
C386     C      0.626000000000     0.871600000000     0.918500000000     0          
O387     O      0.748200000000     0.594700000000     0.031100000000     0          
C388     C      0.724600000000     0.692300000000     0.970900000000     0          
H389     H      0.724890000000     0.704390000000     0.950780000000     0          
C390     C      0.732800000000     0.658700000000     0.971700000000     0          
H391     H      0.739050000000     0.648120000000     0.951790000000     0          
O392     O      0.468500000000     0.969100000000     0.160000000000     0          
C393     C      0.338100000000     0.806800000000     0.031400000000     0          
H394     H      0.332770000000     0.795760000000     0.051360000000     0          
C395     C      0.356500000000     0.836000000000     0.030700000000     0          
C396     C      0.366000000000     0.852700000000     0.061600000000     0          
O397     O      0.437300000000     0.935700000000     0.205700000000     0          
C398     C      0.416200000000     0.914000000000     0.094100000000     0          
H399     H      0.418630000000     0.917630000000     0.071050000000     0          
C400     C      0.395300000000     0.889300000000     0.105400000000     0          
C401     C      0.391700000000     0.884000000000     0.139000000000     0          
H402     H      0.377380000000     0.867110000000     0.146750000000     0          
C403     C      0.409100000000     0.903200000000     0.161400000000     0          
H404     H      0.406670000000     0.899580000000     0.184380000000     0          
C405     C      0.430100000000     0.927900000000     0.150100000000     0          
C406     C      0.433600000000     0.933300000000     0.116400000000     0          
H407     H      0.447920000000     0.950100000000     0.108680000000     0          
C408     C      0.447700000000     0.949100000000     0.173100000000     0          
C409     C      0.374000000000     0.871600000000     0.081500000000     0          
O410     O      0.251800000000     0.594700000000     0.968900000000     0          
C411     C      0.275400000000     0.692300000000     0.029100000000     0          
H412     H      0.275110000000     0.704390000000     0.049220000000     0          
C413     C      0.267200000000     0.658700000000     0.028300000000     0          
H414     H      0.260950000000     0.648120000000     0.048210000000     0          
O415     O      0.468500000000     0.030900000000     0.840000000000     0          
C416     C      0.338100000000     0.193200000000     0.968600000000     0          
H417     H      0.332770000000     0.204240000000     0.948640000000     0          
C418     C      0.356500000000     0.164000000000     0.969300000000     0          
C419     C      0.366000000000     0.147300000000     0.938400000000     0          
O420     O      0.437300000000     0.064300000000     0.794300000000     0          
C421     C      0.416200000000     0.086000000000     0.905900000000     0          
H422     H      0.418630000000     0.082370000000     0.928950000000     0          
C423     C      0.395300000000     0.110700000000     0.894600000000     0          
C424     C      0.391700000000     0.116000000000     0.861000000000     0          
H425     H      0.377380000000     0.132890000000     0.853250000000     0          
C426     C      0.409100000000     0.096800000000     0.838600000000     0          
H427     H      0.406670000000     0.100420000000     0.815620000000     0          
C428     C      0.430100000000     0.072100000000     0.849900000000     0          
C429     C      0.433600000000     0.066700000000     0.883600000000     0          
H430     H      0.447920000000     0.049900000000     0.891320000000     0          
C431     C      0.447700000000     0.050900000000     0.826900000000     0          
C432     C      0.374000000000     0.128400000000     0.918500000000     0          
O433     O      0.251800000000     0.405300000000     0.031100000000     0          
C434     C      0.275400000000     0.307700000000     0.970900000000     0          
H435     H      0.275110000000     0.295610000000     0.950780000000     0          
C436     C      0.267200000000     0.341300000000     0.971700000000     0          
H437     H      0.260950000000     0.351880000000     0.951790000000     0          
O438     O      0.531500000000     0.030900000000     0.160000000000     0          
C439     C      0.661900000000     0.193200000000     0.031400000000     0          
H440     H      0.667230000000     0.204240000000     0.051360000000     0          
C441     C      0.643500000000     0.164000000000     0.030700000000     0          
C442     C      0.634000000000     0.147300000000     0.061600000000     0          
O443     O      0.562700000000     0.064300000000     0.205700000000     0          
C444     C      0.583800000000     0.086000000000     0.094100000000     0          
H445     H      0.581370000000     0.082370000000     0.071050000000     0          
C446     C      0.604700000000     0.110700000000     0.105400000000     0          
C447     C      0.608300000000     0.116000000000     0.139000000000     0          
H448     H      0.622620000000     0.132890000000     0.146750000000     0          
C449     C      0.590900000000     0.096800000000     0.161400000000     0          
H450     H      0.593330000000     0.100420000000     0.184380000000     0          
C451     C      0.569900000000     0.072100000000     0.150100000000     0          
C452     C      0.566400000000     0.066700000000     0.116400000000     0          
H453     H      0.552080000000     0.049900000000     0.108680000000     0          
C454     C      0.552300000000     0.050900000000     0.173100000000     0          
C455     C      0.626000000000     0.128400000000     0.081500000000     0          
O456     O      0.748200000000     0.405300000000     0.968900000000     0          
C457     C      0.724600000000     0.307700000000     0.029100000000     0          
H458     H      0.724890000000     0.295610000000     0.049220000000     0          
C459     C      0.732800000000     0.341300000000     0.028300000000     0          
H460     H      0.739050000000     0.351880000000     0.048210000000     0          
O461     O      0.969100000000     0.160000000000     0.468500000000     0          
C462     C      0.806800000000     0.031400000000     0.338100000000     0          
H463     H      0.795760000000     0.051360000000     0.332770000000     0          
C464     C      0.836000000000     0.030700000000     0.356500000000     0          
C465     C      0.852700000000     0.061600000000     0.366000000000     0          
O466     O      0.935700000000     0.205700000000     0.437300000000     0          
C467     C      0.914000000000     0.094100000000     0.416200000000     0          
H468     H      0.917630000000     0.071050000000     0.418630000000     0          
C469     C      0.889300000000     0.105400000000     0.395300000000     0          
C470     C      0.884000000000     0.139000000000     0.391700000000     0          
H471     H      0.867110000000     0.146750000000     0.377380000000     0          
C472     C      0.903200000000     0.161400000000     0.409100000000     0          
H473     H      0.899580000000     0.184380000000     0.406670000000     0          
C474     C      0.927900000000     0.150100000000     0.430100000000     0          
C475     C      0.933300000000     0.116400000000     0.433600000000     0          
H476     H      0.950100000000     0.108680000000     0.447920000000     0          
C477     C      0.949100000000     0.173100000000     0.447700000000     0          
C478     C      0.871600000000     0.081500000000     0.374000000000     0          
O479     O      0.594700000000     0.968900000000     0.251800000000     0          
C480     C      0.692300000000     0.029100000000     0.275400000000     0          
H481     H      0.704390000000     0.049220000000     0.275110000000     0          
C482     C      0.658700000000     0.028300000000     0.267200000000     0          
H483     H      0.648120000000     0.048210000000     0.260950000000     0          
O484     O      0.969100000000     0.840000000000     0.531500000000     0          
C485     C      0.806800000000     0.968600000000     0.661900000000     0          
H486     H      0.795760000000     0.948640000000     0.667230000000     0          
C487     C      0.836000000000     0.969300000000     0.643500000000     0          
C488     C      0.852700000000     0.938400000000     0.634000000000     0          
O489     O      0.935700000000     0.794300000000     0.562700000000     0          
C490     C      0.914000000000     0.905900000000     0.583800000000     0          
H491     H      0.917630000000     0.928950000000     0.581370000000     0          
C492     C      0.889300000000     0.894600000000     0.604700000000     0          
C493     C      0.884000000000     0.861000000000     0.608300000000     0          
H494     H      0.867110000000     0.853250000000     0.622620000000     0          
C495     C      0.903200000000     0.838600000000     0.590900000000     0          
H496     H      0.899580000000     0.815620000000     0.593330000000     0          
C497     C      0.927900000000     0.849900000000     0.569900000000     0          
C498     C      0.933300000000     0.883600000000     0.566400000000     0          
H499     H      0.950100000000     0.891320000000     0.552080000000     0          
C500     C      0.949100000000     0.826900000000     0.552300000000     0          
C501     C      0.871600000000     0.918500000000     0.626000000000     0          
O502     O      0.594700000000     0.031100000000     0.748200000000     0          
C503     C      0.692300000000     0.970900000000     0.724600000000     0          
H504     H      0.704390000000     0.950780000000     0.724890000000     0          
C505     C      0.658700000000     0.971700000000     0.732800000000     0          
H506     H      0.648120000000     0.951790000000     0.739050000000     0          
O507     O      0.030900000000     0.160000000000     0.531500000000     0          
C508     C      0.193200000000     0.031400000000     0.661900000000     0          
H509     H      0.204240000000     0.051360000000     0.667230000000     0          
C510     C      0.164000000000     0.030700000000     0.643500000000     0          
C511     C      0.147300000000     0.061600000000     0.634000000000     0          
O512     O      0.064300000000     0.205700000000     0.562700000000     0          
C513     C      0.086000000000     0.094100000000     0.583800000000     0          
H514     H      0.082370000000     0.071050000000     0.581370000000     0          
C515     C      0.110700000000     0.105400000000     0.604700000000     0          
C516     C      0.116000000000     0.139000000000     0.608300000000     0          
H517     H      0.132890000000     0.146750000000     0.622620000000     0          
C518     C      0.096800000000     0.161400000000     0.590900000000     0          
H519     H      0.100420000000     0.184380000000     0.593330000000     0          
C520     C      0.072100000000     0.150100000000     0.569900000000     0          
C521     C      0.066700000000     0.116400000000     0.566400000000     0          
H522     H      0.049900000000     0.108680000000     0.552080000000     0          
C523     C      0.050900000000     0.173100000000     0.552300000000     0          
C524     C      0.128400000000     0.081500000000     0.626000000000     0          
O525     O      0.405300000000     0.968900000000     0.748200000000     0          
C526     C      0.307700000000     0.029100000000     0.724600000000     0          
H527     H      0.295610000000     0.049220000000     0.724890000000     0          
C528     C      0.341300000000     0.028300000000     0.732800000000     0          
H529     H      0.351880000000     0.048210000000     0.739050000000     0          
O530     O      0.030900000000     0.840000000000     0.468500000000     0          
C531     C      0.193200000000     0.968600000000     0.338100000000     0          
H532     H      0.204240000000     0.948640000000     0.332770000000     0          
C533     C      0.164000000000     0.969300000000     0.356500000000     0          
C534     C      0.147300000000     0.938400000000     0.366000000000     0          
O535     O      0.064300000000     0.794300000000     0.437300000000     0          
C536     C      0.086000000000     0.905900000000     0.416200000000     0          
H537     H      0.082370000000     0.928950000000     0.418630000000     0          
C538     C      0.110700000000     0.894600000000     0.395300000000     0          
C539     C      0.116000000000     0.861000000000     0.391700000000     0          
H540     H      0.132890000000     0.853250000000     0.377380000000     0          
C541     C      0.096800000000     0.838600000000     0.409100000000     0          
H542     H      0.100420000000     0.815620000000     0.406670000000     0          
C543     C      0.072100000000     0.849900000000     0.430100000000     0          
C544     C      0.066700000000     0.883600000000     0.433600000000     0          
H545     H      0.049900000000     0.891320000000     0.447920000000     0          
C546     C      0.050900000000     0.826900000000     0.447700000000     0          
C547     C      0.128400000000     0.918500000000     0.374000000000     0          
O548     O      0.405300000000     0.031100000000     0.251800000000     0          
C549     C      0.307700000000     0.970900000000     0.275400000000     0          
H550     H      0.295610000000     0.950780000000     0.275110000000     0          
C551     C      0.341300000000     0.971700000000     0.267200000000     0          
H552     H      0.351880000000     0.951790000000     0.260950000000     0          
O553     O      0.968500000000     0.340000000000     0.530900000000     0          
C554     C      0.838100000000     0.468600000000     0.693200000000     0          
H555     H      0.832770000000     0.448640000000     0.704240000000     0          
C556     C      0.856500000000     0.469300000000     0.664000000000     0          
C557     C      0.866000000000     0.438400000000     0.647300000000     0          
O558     O      0.937300000000     0.294300000000     0.564300000000     0          
C559     C      0.916200000000     0.405900000000     0.586000000000     0          
H560     H      0.918630000000     0.428950000000     0.582370000000     0          
C561     C      0.895300000000     0.394600000000     0.610700000000     0          
C562     C      0.891700000000     0.361000000000     0.616000000000     0          
H563     H      0.877380000000     0.353250000000     0.632890000000     0          
C564     C      0.909100000000     0.338600000000     0.596800000000     0          
H565     H      0.906670000000     0.315620000000     0.600420000000     0          
C566     C      0.930100000000     0.349900000000     0.572100000000     0          
C567     C      0.933600000000     0.383600000000     0.566700000000     0          
H568     H      0.947920000000     0.391320000000     0.549900000000     0          
C569     C      0.947700000000     0.326900000000     0.550900000000     0          
C570     C      0.874000000000     0.418500000000     0.628400000000     0          
O571     O      0.751800000000     0.531100000000     0.905300000000     0          
C572     C      0.775400000000     0.470900000000     0.807700000000     0          
H573     H      0.775110000000     0.450780000000     0.795610000000     0          
C574     C      0.767200000000     0.471700000000     0.841300000000     0          
H575     H      0.760950000000     0.451790000000     0.851880000000     0          
O576     O      0.031500000000     0.660000000000     0.530900000000     0          
C577     C      0.161900000000     0.531400000000     0.693200000000     0          
H578     H      0.167230000000     0.551360000000     0.704240000000     0          
C579     C      0.143500000000     0.530700000000     0.664000000000     0          
C580     C      0.134000000000     0.561600000000     0.647300000000     0          
O581     O      0.062700000000     0.705700000000     0.564300000000     0          
C582     C      0.083800000000     0.594100000000     0.586000000000     0          
H583     H      0.081370000000     0.571050000000     0.582370000000     0          
C584     C      0.104700000000     0.605400000000     0.610700000000     0          
C585     C      0.108300000000     0.639000000000     0.616000000000     0          
H586     H      0.122620000000     0.646750000000     0.632890000000     0          
C587     C      0.090900000000     0.661400000000     0.596800000000     0          
H588     H      0.093330000000     0.684380000000     0.600420000000     0          
C589     C      0.069900000000     0.650100000000     0.572100000000     0          
C590     C      0.066400000000     0.616400000000     0.566700000000     0          
H591     H      0.052080000000     0.608680000000     0.549900000000     0          
C592     C      0.052300000000     0.673100000000     0.550900000000     0          
C593     C      0.126000000000     0.581500000000     0.628400000000     0          
O594     O      0.248200000000     0.468900000000     0.905300000000     0          
C595     C      0.224600000000     0.529100000000     0.807700000000     0          
H596     H      0.224890000000     0.549220000000     0.795610000000     0          
C597     C      0.232800000000     0.528300000000     0.841300000000     0          
H598     H      0.239050000000     0.548210000000     0.851880000000     0          
O599     O      0.031500000000     0.340000000000     0.469100000000     0          
C600     C      0.161900000000     0.468600000000     0.306800000000     0          
H601     H      0.167230000000     0.448640000000     0.295760000000     0          
C602     C      0.143500000000     0.469300000000     0.336000000000     0          
C603     C      0.134000000000     0.438400000000     0.352700000000     0          
O604     O      0.062700000000     0.294300000000     0.435700000000     0          
C605     C      0.083800000000     0.405900000000     0.414000000000     0          
H606     H      0.081370000000     0.428950000000     0.417630000000     0          
C607     C      0.104700000000     0.394600000000     0.389300000000     0          
C608     C      0.108300000000     0.361000000000     0.384000000000     0          
H609     H      0.122620000000     0.353250000000     0.367110000000     0          
C610     C      0.090900000000     0.338600000000     0.403200000000     0          
H611     H      0.093330000000     0.315620000000     0.399580000000     0          
C612     C      0.069900000000     0.349900000000     0.427900000000     0          
C613     C      0.066400000000     0.383600000000     0.433300000000     0          
H614     H      0.052080000000     0.391320000000     0.450100000000     0          
C615     C      0.052300000000     0.326900000000     0.449100000000     0          
C616     C      0.126000000000     0.418500000000     0.371600000000     0          
O617     O      0.248200000000     0.531100000000     0.094700000000     0          
C618     C      0.224600000000     0.470900000000     0.192300000000     0          
H619     H      0.224890000000     0.450780000000     0.204390000000     0          
C620     C      0.232800000000     0.471700000000     0.158700000000     0          
H621     H      0.239050000000     0.451790000000     0.148120000000     0          
O622     O      0.968500000000     0.660000000000     0.469100000000     0          
C623     C      0.838100000000     0.531400000000     0.306800000000     0          
H624     H      0.832770000000     0.551360000000     0.295760000000     0          
C625     C      0.856500000000     0.530700000000     0.336000000000     0          
C626     C      0.866000000000     0.561600000000     0.352700000000     0          
O627     O      0.937300000000     0.705700000000     0.435700000000     0          
C628     C      0.916200000000     0.594100000000     0.414000000000     0          
H629     H      0.918630000000     0.571050000000     0.417630000000     0          
C630     C      0.895300000000     0.605400000000     0.389300000000     0          
C631     C      0.891700000000     0.639000000000     0.384000000000     0          
H632     H      0.877380000000     0.646750000000     0.367110000000     0          
C633     C      0.909100000000     0.661400000000     0.403200000000     0          
H634     H      0.906670000000     0.684380000000     0.399580000000     0          
C635     C      0.930100000000     0.650100000000     0.427900000000     0          
C636     C      0.933600000000     0.616400000000     0.433300000000     0          
H637     H      0.947920000000     0.608680000000     0.450100000000     0          
C638     C      0.947700000000     0.673100000000     0.449100000000     0          
C639     C      0.874000000000     0.581500000000     0.371600000000     0          
O640     O      0.751800000000     0.468900000000     0.094700000000     0          
C641     C      0.775400000000     0.529100000000     0.192300000000     0          
H642     H      0.775110000000     0.549220000000     0.204390000000     0          
C643     C      0.767200000000     0.528300000000     0.158700000000     0          
H644     H      0.760950000000     0.548210000000     0.148120000000     0          
O645     O      0.530900000000     0.968500000000     0.340000000000     0          
C646     C      0.693200000000     0.838100000000     0.468600000000     0          
H647     H      0.704240000000     0.832770000000     0.448640000000     0          
C648     C      0.664000000000     0.856500000000     0.469300000000     0          
C649     C      0.647300000000     0.866000000000     0.438400000000     0          
O650     O      0.564300000000     0.937300000000     0.294300000000     0          
C651     C      0.586000000000     0.916200000000     0.405900000000     0          
H652     H      0.582370000000     0.918630000000     0.428950000000     0          
C653     C      0.610700000000     0.895300000000     0.394600000000     0          
C654     C      0.616000000000     0.891700000000     0.361000000000     0          
H655     H      0.632890000000     0.877380000000     0.353250000000     0          
C656     C      0.596800000000     0.909100000000     0.338600000000     0          
H657     H      0.600420000000     0.906670000000     0.315620000000     0          
C658     C      0.572100000000     0.930100000000     0.349900000000     0          
C659     C      0.566700000000     0.933600000000     0.383600000000     0          
H660     H      0.549900000000     0.947920000000     0.391320000000     0          
C661     C      0.550900000000     0.947700000000     0.326900000000     0          
C662     C      0.628400000000     0.874000000000     0.418500000000     0          
O663     O      0.905300000000     0.751800000000     0.531100000000     0          
C664     C      0.807700000000     0.775400000000     0.470900000000     0          
H665     H      0.795610000000     0.775110000000     0.450780000000     0          
C666     C      0.841300000000     0.767200000000     0.471700000000     0          
H667     H      0.851880000000     0.760950000000     0.451790000000     0          
O668     O      0.530900000000     0.031500000000     0.660000000000     0          
C669     C      0.693200000000     0.161900000000     0.531400000000     0          
H670     H      0.704240000000     0.167230000000     0.551360000000     0          
C671     C      0.664000000000     0.143500000000     0.530700000000     0          
C672     C      0.647300000000     0.134000000000     0.561600000000     0          
O673     O      0.564300000000     0.062700000000     0.705700000000     0          
C674     C      0.586000000000     0.083800000000     0.594100000000     0          
H675     H      0.582370000000     0.081370000000     0.571050000000     0          
C676     C      0.610700000000     0.104700000000     0.605400000000     0          
C677     C      0.616000000000     0.108300000000     0.639000000000     0          
H678     H      0.632890000000     0.122620000000     0.646750000000     0          
C679     C      0.596800000000     0.090900000000     0.661400000000     0          
H680     H      0.600420000000     0.093330000000     0.684380000000     0          
C681     C      0.572100000000     0.069900000000     0.650100000000     0          
C682     C      0.566700000000     0.066400000000     0.616400000000     0          
H683     H      0.549900000000     0.052080000000     0.608680000000     0          
C684     C      0.550900000000     0.052300000000     0.673100000000     0          
C685     C      0.628400000000     0.126000000000     0.581500000000     0          
O686     O      0.905300000000     0.248200000000     0.468900000000     0          
C687     C      0.807700000000     0.224600000000     0.529100000000     0          
H688     H      0.795610000000     0.224890000000     0.549220000000     0          
C689     C      0.841300000000     0.232800000000     0.528300000000     0          
H690     H      0.851880000000     0.239050000000     0.548210000000     0          
O691     O      0.469100000000     0.031500000000     0.340000000000     0          
C692     C      0.306800000000     0.161900000000     0.468600000000     0          
H693     H      0.295760000000     0.167230000000     0.448640000000     0          
C694     C      0.336000000000     0.143500000000     0.469300000000     0          
C695     C      0.352700000000     0.134000000000     0.438400000000     0          
O696     O      0.435700000000     0.062700000000     0.294300000000     0          
C697     C      0.414000000000     0.083800000000     0.405900000000     0          
H698     H      0.417630000000     0.081370000000     0.428950000000     0          
C699     C      0.389300000000     0.104700000000     0.394600000000     0          
C700     C      0.384000000000     0.108300000000     0.361000000000     0          
H701     H      0.367110000000     0.122620000000     0.353250000000     0          
C702     C      0.403200000000     0.090900000000     0.338600000000     0          
H703     H      0.399580000000     0.093330000000     0.315620000000     0          
C704     C      0.427900000000     0.069900000000     0.349900000000     0          
C705     C      0.433300000000     0.066400000000     0.383600000000     0          
H706     H      0.450100000000     0.052080000000     0.391320000000     0          
C707     C      0.449100000000     0.052300000000     0.326900000000     0          
C708     C      0.371600000000     0.126000000000     0.418500000000     0          
O709     O      0.094700000000     0.248200000000     0.531100000000     0          
C710     C      0.192300000000     0.224600000000     0.470900000000     0          
H711     H      0.204390000000     0.224890000000     0.450780000000     0          
C712     C      0.158700000000     0.232800000000     0.471700000000     0          
H713     H      0.148120000000     0.239050000000     0.451790000000     0          
O714     O      0.469100000000     0.968500000000     0.660000000000     0          
C715     C      0.306800000000     0.838100000000     0.531400000000     0          
H716     H      0.295760000000     0.832770000000     0.551360000000     0          
C717     C      0.336000000000     0.856500000000     0.530700000000     0          
C718     C      0.352700000000     0.866000000000     0.561600000000     0          
O719     O      0.435700000000     0.937300000000     0.705700000000     0          
C720     C      0.414000000000     0.916200000000     0.594100000000     0          
H721     H      0.417630000000     0.918630000000     0.571050000000     0          
C722     C      0.389300000000     0.895300000000     0.605400000000     0          
C723     C      0.384000000000     0.891700000000     0.639000000000     0          
H724     H      0.367110000000     0.877380000000     0.646750000000     0          
C725     C      0.403200000000     0.909100000000     0.661400000000     0          
H726     H      0.399580000000     0.906670000000     0.684380000000     0          
C727     C      0.427900000000     0.930100000000     0.650100000000     0          
C728     C      0.433300000000     0.933600000000     0.616400000000     0          
H729     H      0.450100000000     0.947920000000     0.608680000000     0          
C730     C      0.449100000000     0.947700000000     0.673100000000     0          
C731     C      0.371600000000     0.874000000000     0.581500000000     0          
O732     O      0.094700000000     0.751800000000     0.468900000000     0          
C733     C      0.192300000000     0.775400000000     0.529100000000     0          
H734     H      0.204390000000     0.775110000000     0.549220000000     0          
C735     C      0.158700000000     0.767200000000     0.528300000000     0          
H736     H      0.148120000000     0.760950000000     0.548210000000     0          
O737     O      0.340000000000     0.530900000000     0.968500000000     0          
C738     C      0.468600000000     0.693200000000     0.838100000000     0          
H739     H      0.448640000000     0.704240000000     0.832770000000     0          
C740     C      0.469300000000     0.664000000000     0.856500000000     0          
C741     C      0.438400000000     0.647300000000     0.866000000000     0          
O742     O      0.294300000000     0.564300000000     0.937300000000     0          
C743     C      0.405900000000     0.586000000000     0.916200000000     0          
H744     H      0.428950000000     0.582370000000     0.918630000000     0          
C745     C      0.394600000000     0.610700000000     0.895300000000     0          
C746     C      0.361000000000     0.616000000000     0.891700000000     0          
H747     H      0.353250000000     0.632890000000     0.877380000000     0          
C748     C      0.338600000000     0.596800000000     0.909100000000     0          
H749     H      0.315620000000     0.600420000000     0.906670000000     0          
C750     C      0.349900000000     0.572100000000     0.930100000000     0          
C751     C      0.383600000000     0.566700000000     0.933600000000     0          
H752     H      0.391320000000     0.549900000000     0.947920000000     0          
C753     C      0.326900000000     0.550900000000     0.947700000000     0          
C754     C      0.418500000000     0.628400000000     0.874000000000     0          
O755     O      0.531100000000     0.905300000000     0.751800000000     0          
C756     C      0.470900000000     0.807700000000     0.775400000000     0          
H757     H      0.450780000000     0.795610000000     0.775110000000     0          
C758     C      0.471700000000     0.841300000000     0.767200000000     0          
H759     H      0.451790000000     0.851880000000     0.760950000000     0          
O760     O      0.660000000000     0.530900000000     0.031500000000     0          
C761     C      0.531400000000     0.693200000000     0.161900000000     0          
H762     H      0.551360000000     0.704240000000     0.167230000000     0          
C763     C      0.530700000000     0.664000000000     0.143500000000     0          
C764     C      0.561600000000     0.647300000000     0.134000000000     0          
O765     O      0.705700000000     0.564300000000     0.062700000000     0          
C766     C      0.594100000000     0.586000000000     0.083800000000     0          
H767     H      0.571050000000     0.582370000000     0.081370000000     0          
C768     C      0.605400000000     0.610700000000     0.104700000000     0          
C769     C      0.639000000000     0.616000000000     0.108300000000     0          
H770     H      0.646750000000     0.632890000000     0.122620000000     0          
C771     C      0.661400000000     0.596800000000     0.090900000000     0          
H772     H      0.684380000000     0.600420000000     0.093330000000     0          
C773     C      0.650100000000     0.572100000000     0.069900000000     0          
C774     C      0.616400000000     0.566700000000     0.066400000000     0          
H775     H      0.608680000000     0.549900000000     0.052080000000     0          
C776     C      0.673100000000     0.550900000000     0.052300000000     0          
C777     C      0.581500000000     0.628400000000     0.126000000000     0          
O778     O      0.468900000000     0.905300000000     0.248200000000     0          
C779     C      0.529100000000     0.807700000000     0.224600000000     0          
H780     H      0.549220000000     0.795610000000     0.224890000000     0          
C781     C      0.528300000000     0.841300000000     0.232800000000     0          
H782     H      0.548210000000     0.851880000000     0.239050000000     0          
O783     O      0.340000000000     0.469100000000     0.031500000000     0          
C784     C      0.468600000000     0.306800000000     0.161900000000     0          
H785     H      0.448640000000     0.295760000000     0.167230000000     0          
C786     C      0.469300000000     0.336000000000     0.143500000000     0          
C787     C      0.438400000000     0.352700000000     0.134000000000     0          
O788     O      0.294300000000     0.435700000000     0.062700000000     0          
C789     C      0.405900000000     0.414000000000     0.083800000000     0          
H790     H      0.428950000000     0.417630000000     0.081370000000     0          
C791     C      0.394600000000     0.389300000000     0.104700000000     0          
C792     C      0.361000000000     0.384000000000     0.108300000000     0          
H793     H      0.353250000000     0.367110000000     0.122620000000     0          
C794     C      0.338600000000     0.403200000000     0.090900000000     0          
H795     H      0.315620000000     0.399580000000     0.093330000000     0          
C796     C      0.349900000000     0.427900000000     0.069900000000     0          
C797     C      0.383600000000     0.433300000000     0.066400000000     0          
H798     H      0.391320000000     0.450100000000     0.052080000000     0          
C799     C      0.326900000000     0.449100000000     0.052300000000     0          
C800     C      0.418500000000     0.371600000000     0.126000000000     0          
O801     O      0.531100000000     0.094700000000     0.248200000000     0          
C802     C      0.470900000000     0.192300000000     0.224600000000     0          
H803     H      0.450780000000     0.204390000000     0.224890000000     0          
C804     C      0.471700000000     0.158700000000     0.232800000000     0          
H805     H      0.451790000000     0.148120000000     0.239050000000     0          
O806     O      0.660000000000     0.469100000000     0.968500000000     0          
C807     C      0.531400000000     0.306800000000     0.838100000000     0          
H808     H      0.551360000000     0.295760000000     0.832770000000     0          
C809     C      0.530700000000     0.336000000000     0.856500000000     0          
C810     C      0.561600000000     0.352700000000     0.866000000000     0          
O811     O      0.705700000000     0.435700000000     0.937300000000     0          
C812     C      0.594100000000     0.414000000000     0.916200000000     0          
H813     H      0.571050000000     0.417630000000     0.918630000000     0          
C814     C      0.605400000000     0.389300000000     0.895300000000     0          
C815     C      0.639000000000     0.384000000000     0.891700000000     0          
H816     H      0.646750000000     0.367110000000     0.877380000000     0          
C817     C      0.661400000000     0.403200000000     0.909100000000     0          
H818     H      0.684380000000     0.399580000000     0.906670000000     0          
C819     C      0.650100000000     0.427900000000     0.930100000000     0          
C820     C      0.616400000000     0.433300000000     0.933600000000     0          
H821     H      0.608680000000     0.450100000000     0.947920000000     0          
C822     C      0.673100000000     0.449100000000     0.947700000000     0          
C823     C      0.581500000000     0.371600000000     0.874000000000     0          
O824     O      0.468900000000     0.094700000000     0.751800000000     0          
C825     C      0.529100000000     0.192300000000     0.775400000000     0          
H826     H      0.549220000000     0.204390000000     0.775110000000     0          
C827     C      0.528300000000     0.158700000000     0.767200000000     0          
H828     H      0.548210000000     0.148120000000     0.760950000000     0          
O829     O      0.840000000000     0.468500000000     0.969100000000     0          
C830     C      0.968600000000     0.338100000000     0.806800000000     0          
H831     H      0.948640000000     0.332770000000     0.795760000000     0          
C832     C      0.969300000000     0.356500000000     0.836000000000     0          
C833     C      0.938400000000     0.366000000000     0.852700000000     0          
O834     O      0.794300000000     0.437300000000     0.935700000000     0          
C835     C      0.905900000000     0.416200000000     0.914000000000     0          
H836     H      0.928950000000     0.418630000000     0.917630000000     0          
C837     C      0.894600000000     0.395300000000     0.889300000000     0          
C838     C      0.861000000000     0.391700000000     0.884000000000     0          
H839     H      0.853250000000     0.377380000000     0.867110000000     0          
C840     C      0.838600000000     0.409100000000     0.903200000000     0          
H841     H      0.815620000000     0.406670000000     0.899580000000     0          
C842     C      0.849900000000     0.430100000000     0.927900000000     0          
C843     C      0.883600000000     0.433600000000     0.933300000000     0          
H844     H      0.891320000000     0.447920000000     0.950100000000     0          
C845     C      0.826900000000     0.447700000000     0.949100000000     0          
C846     C      0.918500000000     0.374000000000     0.871600000000     0          
O847     O      0.031100000000     0.251800000000     0.594700000000     0          
C848     C      0.970900000000     0.275400000000     0.692300000000     0          
H849     H      0.950780000000     0.275110000000     0.704390000000     0          
C850     C      0.971700000000     0.267200000000     0.658700000000     0          
H851     H      0.951790000000     0.260950000000     0.648120000000     0          
O852     O      0.160000000000     0.531500000000     0.969100000000     0          
C853     C      0.031400000000     0.661900000000     0.806800000000     0          
H854     H      0.051360000000     0.667230000000     0.795760000000     0          
C855     C      0.030700000000     0.643500000000     0.836000000000     0          
C856     C      0.061600000000     0.634000000000     0.852700000000     0          
O857     O      0.205700000000     0.562700000000     0.935700000000     0          
C858     C      0.094100000000     0.583800000000     0.914000000000     0          
H859     H      0.071050000000     0.581370000000     0.917630000000     0          
C860     C      0.105400000000     0.604700000000     0.889300000000     0          
C861     C      0.139000000000     0.608300000000     0.884000000000     0          
H862     H      0.146750000000     0.622620000000     0.867110000000     0          
C863     C      0.161400000000     0.590900000000     0.903200000000     0          
H864     H      0.184380000000     0.593330000000     0.899580000000     0          
C865     C      0.150100000000     0.569900000000     0.927900000000     0          
C866     C      0.116400000000     0.566400000000     0.933300000000     0          
H867     H      0.108680000000     0.552080000000     0.950100000000     0          
C868     C      0.173100000000     0.552300000000     0.949100000000     0          
C869     C      0.081500000000     0.626000000000     0.871600000000     0          
O870     O      0.968900000000     0.748200000000     0.594700000000     0          
C871     C      0.029100000000     0.724600000000     0.692300000000     0          
H872     H      0.049220000000     0.724890000000     0.704390000000     0          
C873     C      0.028300000000     0.732800000000     0.658700000000     0          
H874     H      0.048210000000     0.739050000000     0.648120000000     0          
O875     O      0.840000000000     0.531500000000     0.030900000000     0          
C876     C      0.968600000000     0.661900000000     0.193200000000     0          
H877     H      0.948640000000     0.667230000000     0.204240000000     0          
C878     C      0.969300000000     0.643500000000     0.164000000000     0          
C879     C      0.938400000000     0.634000000000     0.147300000000     0          
O880     O      0.794300000000     0.562700000000     0.064300000000     0          
C881     C      0.905900000000     0.583800000000     0.086000000000     0          
H882     H      0.928950000000     0.581370000000     0.082370000000     0          
C883     C      0.894600000000     0.604700000000     0.110700000000     0          
C884     C      0.861000000000     0.608300000000     0.116000000000     0          
H885     H      0.853250000000     0.622620000000     0.132890000000     0          
C886     C      0.838600000000     0.590900000000     0.096800000000     0          
H887     H      0.815620000000     0.593330000000     0.100420000000     0          
C888     C      0.849900000000     0.569900000000     0.072100000000     0          
C889     C      0.883600000000     0.566400000000     0.066700000000     0          
H890     H      0.891320000000     0.552080000000     0.049900000000     0          
C891     C      0.826900000000     0.552300000000     0.050900000000     0          
C892     C      0.918500000000     0.626000000000     0.128400000000     0          
O893     O      0.031100000000     0.748200000000     0.405300000000     0          
C894     C      0.970900000000     0.724600000000     0.307700000000     0          
H895     H      0.950780000000     0.724890000000     0.295610000000     0          
C896     C      0.971700000000     0.732800000000     0.341300000000     0          
H897     H      0.951790000000     0.739050000000     0.351880000000     0          
O898     O      0.160000000000     0.468500000000     0.030900000000     0          
C899     C      0.031400000000     0.338100000000     0.193200000000     0          
H900     H      0.051360000000     0.332770000000     0.204240000000     0          
C901     C      0.030700000000     0.356500000000     0.164000000000     0          
C902     C      0.061600000000     0.366000000000     0.147300000000     0          
O903     O      0.205700000000     0.437300000000     0.064300000000     0          
C904     C      0.094100000000     0.416200000000     0.086000000000     0          
H905     H      0.071050000000     0.418630000000     0.082370000000     0          
C906     C      0.105400000000     0.395300000000     0.110700000000     0          
C907     C      0.139000000000     0.391700000000     0.116000000000     0          
H908     H      0.146750000000     0.377380000000     0.132890000000     0          
C909     C      0.161400000000     0.409100000000     0.096800000000     0          
H910     H      0.184380000000     0.406670000000     0.100420000000     0          
C911     C      0.150100000000     0.430100000000     0.072100000000     0          
C912     C      0.116400000000     0.433600000000     0.066700000000     0          
H913     H      0.108680000000     0.447920000000     0.049900000000     0          
C914     C      0.173100000000     0.447700000000     0.050900000000     0          
C915     C      0.081500000000     0.374000000000     0.128400000000     0          
O916     O      0.968900000000     0.251800000000     0.405300000000     0          
C917     C      0.029100000000     0.275400000000     0.307700000000     0          
H918     H      0.049220000000     0.275110000000     0.295610000000     0          
C919     C      0.028300000000     0.267200000000     0.341300000000     0          
H920     H      0.048210000000     0.260950000000     0.351880000000     0          
O921     O      0.468500000000     0.030900000000     0.160000000000     0          
C922     C      0.338100000000     0.193200000000     0.031400000000     0          
H923     H      0.332770000000     0.204240000000     0.051360000000     0          
C924     C      0.356500000000     0.164000000000     0.030700000000     0          
C925     C      0.366000000000     0.147300000000     0.061600000000     0          
O926     O      0.437300000000     0.064300000000     0.205700000000     0          
C927     C      0.416200000000     0.086000000000     0.094100000000     0          
H928     H      0.418630000000     0.082370000000     0.071050000000     0          
C929     C      0.395300000000     0.110700000000     0.105400000000     0          
C930     C      0.391700000000     0.116000000000     0.139000000000     0          
H931     H      0.377380000000     0.132890000000     0.146750000000     0          
C932     C      0.409100000000     0.096800000000     0.161400000000     0          
H933     H      0.406670000000     0.100420000000     0.184380000000     0          
C934     C      0.430100000000     0.072100000000     0.150100000000     0          
C935     C      0.433600000000     0.066700000000     0.116400000000     0          
H936     H      0.447920000000     0.049900000000     0.108680000000     0          
C937     C      0.447700000000     0.050900000000     0.173100000000     0          
C938     C      0.374000000000     0.128400000000     0.081500000000     0          
O939     O      0.251800000000     0.405300000000     0.968900000000     0          
C940     C      0.275400000000     0.307700000000     0.029100000000     0          
H941     H      0.275110000000     0.295610000000     0.049220000000     0          
C942     C      0.267200000000     0.341300000000     0.028300000000     0          
H943     H      0.260950000000     0.351880000000     0.048210000000     0          
O944     O      0.531500000000     0.030900000000     0.840000000000     0          
C945     C      0.661900000000     0.193200000000     0.968600000000     0          
H946     H      0.667230000000     0.204240000000     0.948640000000     0          
C947     C      0.643500000000     0.164000000000     0.969300000000     0          
C948     C      0.634000000000     0.147300000000     0.938400000000     0          
O949     O      0.562700000000     0.064300000000     0.794300000000     0          
C950     C      0.583800000000     0.086000000000     0.905900000000     0          
H951     H      0.581370000000     0.082370000000     0.928950000000     0          
C952     C      0.604700000000     0.110700000000     0.894600000000     0          
C953     C      0.608300000000     0.116000000000     0.861000000000     0          
H954     H      0.622620000000     0.132890000000     0.853250000000     0          
C955     C      0.590900000000     0.096800000000     0.838600000000     0          
H956     H      0.593330000000     0.100420000000     0.815620000000     0          
C957     C      0.569900000000     0.072100000000     0.849900000000     0          
C958     C      0.566400000000     0.066700000000     0.883600000000     0          
H959     H      0.552080000000     0.049900000000     0.891320000000     0          
C960     C      0.552300000000     0.050900000000     0.826900000000     0          
C961     C      0.626000000000     0.128400000000     0.918500000000     0          
O962     O      0.748200000000     0.405300000000     0.031100000000     0          
C963     C      0.724600000000     0.307700000000     0.970900000000     0          
H964     H      0.724890000000     0.295610000000     0.950780000000     0          
C965     C      0.732800000000     0.341300000000     0.971700000000     0          
H966     H      0.739050000000     0.351880000000     0.951790000000     0          
O967     O      0.531500000000     0.969100000000     0.160000000000     0          
C968     C      0.661900000000     0.806800000000     0.031400000000     0          
H969     H      0.667230000000     0.795760000000     0.051360000000     0          
C970     C      0.643500000000     0.836000000000     0.030700000000     0          
C971     C      0.634000000000     0.852700000000     0.061600000000     0          
O972     O      0.562700000000     0.935700000000     0.205700000000     0          
C973     C      0.583800000000     0.914000000000     0.094100000000     0          
H974     H      0.581370000000     0.917630000000     0.071050000000     0          
C975     C      0.604700000000     0.889300000000     0.105400000000     0          
C976     C      0.608300000000     0.884000000000     0.139000000000     0          
H977     H      0.622620000000     0.867110000000     0.146750000000     0          
C978     C      0.590900000000     0.903200000000     0.161400000000     0          
H979     H      0.593330000000     0.899580000000     0.184380000000     0          
C980     C      0.569900000000     0.927900000000     0.150100000000     0          
C981     C      0.566400000000     0.933300000000     0.116400000000     0          
H982     H      0.552080000000     0.950100000000     0.108680000000     0          
C983     C      0.552300000000     0.949100000000     0.173100000000     0          
C984     C      0.626000000000     0.871600000000     0.081500000000     0          
O985     O      0.748200000000     0.594700000000     0.968900000000     0          
C986     C      0.724600000000     0.692300000000     0.029100000000     0          
H987     H      0.724890000000     0.704390000000     0.049220000000     0          
C988     C      0.732800000000     0.658700000000     0.028300000000     0          
H989     H      0.739050000000     0.648120000000     0.048210000000     0          
O990     O      0.468500000000     0.969100000000     0.840000000000     0          
C991     C      0.338100000000     0.806800000000     0.968600000000     0          
H992     H      0.332770000000     0.795760000000     0.948640000000     0          
C993     C      0.356500000000     0.836000000000     0.969300000000     0          
C994     C      0.366000000000     0.852700000000     0.938400000000     0          
O995     O      0.437300000000     0.935700000000     0.794300000000     0          
C996     C      0.416200000000     0.914000000000     0.905900000000     0          
H997     H      0.418630000000     0.917630000000     0.928950000000     0          
C998     C      0.395300000000     0.889300000000     0.894600000000     0          
C999     C      0.391700000000     0.884000000000     0.861000000000     0          
H1000    H      0.377380000000     0.867110000000     0.853250000000     0          
C1001    C      0.409100000000     0.903200000000     0.838600000000     0          
H1002    H      0.406670000000     0.899580000000     0.815620000000     0          
C1003    C      0.430100000000     0.927900000000     0.849900000000     0          
C1004    C      0.433600000000     0.933300000000     0.883600000000     0          
H1005    H      0.447920000000     0.950100000000     0.891320000000     0          
C1006    C      0.447700000000     0.949100000000     0.826900000000     0          
C1007    C      0.374000000000     0.871600000000     0.918500000000     0          
O1008    O      0.251800000000     0.594700000000     0.031100000000     0          
C1009    C      0.275400000000     0.692300000000     0.970900000000     0          
H1010    H      0.275110000000     0.704390000000     0.950780000000     0          
C1011    C      0.267200000000     0.658700000000     0.971700000000     0          
H1012    H      0.260950000000     0.648120000000     0.951790000000     0          
O1013    O      0.030900000000     0.840000000000     0.531500000000     0          
C1014    C      0.193200000000     0.968600000000     0.661900000000     0          
H1015    H      0.204240000000     0.948640000000     0.667230000000     0          
C1016    C      0.164000000000     0.969300000000     0.643500000000     0          
C1017    C      0.147300000000     0.938400000000     0.634000000000     0          
O1018    O      0.064300000000     0.794300000000     0.562700000000     0          
C1019    C      0.086000000000     0.905900000000     0.583800000000     0          
H1020    H      0.082370000000     0.928950000000     0.581370000000     0          
C1021    C      0.110700000000     0.894600000000     0.604700000000     0          
C1022    C      0.116000000000     0.861000000000     0.608300000000     0          
H1023    H      0.132890000000     0.853250000000     0.622620000000     0          
C1024    C      0.096800000000     0.838600000000     0.590900000000     0          
H1025    H      0.100420000000     0.815620000000     0.593330000000     0          
C1026    C      0.072100000000     0.849900000000     0.569900000000     0          
C1027    C      0.066700000000     0.883600000000     0.566400000000     0          
H1028    H      0.049900000000     0.891320000000     0.552080000000     0          
C1029    C      0.050900000000     0.826900000000     0.552300000000     0          
C1030    C      0.128400000000     0.918500000000     0.626000000000     0          
O1031    O      0.405300000000     0.031100000000     0.748200000000     0          
C1032    C      0.307700000000     0.970900000000     0.724600000000     0          
H1033    H      0.295610000000     0.950780000000     0.724890000000     0          
C1034    C      0.341300000000     0.971700000000     0.732800000000     0          
H1035    H      0.351880000000     0.951790000000     0.739050000000     0          
O1036    O      0.030900000000     0.160000000000     0.468500000000     0          
C1037    C      0.193200000000     0.031400000000     0.338100000000     0          
H1038    H      0.204240000000     0.051360000000     0.332770000000     0          
C1039    C      0.164000000000     0.030700000000     0.356500000000     0          
C1040    C      0.147300000000     0.061600000000     0.366000000000     0          
O1041    O      0.064300000000     0.205700000000     0.437300000000     0          
C1042    C      0.086000000000     0.094100000000     0.416200000000     0          
H1043    H      0.082370000000     0.071050000000     0.418630000000     0          
C1044    C      0.110700000000     0.105400000000     0.395300000000     0          
C1045    C      0.116000000000     0.139000000000     0.391700000000     0          
H1046    H      0.132890000000     0.146750000000     0.377380000000     0          
C1047    C      0.096800000000     0.161400000000     0.409100000000     0          
H1048    H      0.100420000000     0.184380000000     0.406670000000     0          
C1049    C      0.072100000000     0.150100000000     0.430100000000     0          
C1050    C      0.066700000000     0.116400000000     0.433600000000     0          
H1051    H      0.049900000000     0.108680000000     0.447920000000     0          
C1052    C      0.050900000000     0.173100000000     0.447700000000     0          
C1053    C      0.128400000000     0.081500000000     0.374000000000     0          
O1054    O      0.405300000000     0.968900000000     0.251800000000     0          
C1055    C      0.307700000000     0.029100000000     0.275400000000     0          
H1056    H      0.295610000000     0.049220000000     0.275110000000     0          
C1057    C      0.341300000000     0.028300000000     0.267200000000     0          
H1058    H      0.351880000000     0.048210000000     0.260950000000     0          
O1059    O      0.969100000000     0.840000000000     0.468500000000     0          
C1060    C      0.806800000000     0.968600000000     0.338100000000     0          
H1061    H      0.795760000000     0.948640000000     0.332770000000     0          
C1062    C      0.836000000000     0.969300000000     0.356500000000     0          
C1063    C      0.852700000000     0.938400000000     0.366000000000     0          
O1064    O      0.935700000000     0.794300000000     0.437300000000     0          
C1065    C      0.914000000000     0.905900000000     0.416200000000     0          
H1066    H      0.917630000000     0.928950000000     0.418630000000     0          
C1067    C      0.889300000000     0.894600000000     0.395300000000     0          
C1068    C      0.884000000000     0.861000000000     0.391700000000     0          
H1069    H      0.867110000000     0.853250000000     0.377380000000     0          
C1070    C      0.903200000000     0.838600000000     0.409100000000     0          
H1071    H      0.899580000000     0.815620000000     0.406670000000     0          
C1072    C      0.927900000000     0.849900000000     0.430100000000     0          
C1073    C      0.933300000000     0.883600000000     0.433600000000     0          
H1074    H      0.950100000000     0.891320000000     0.447920000000     0          
C1075    C      0.949100000000     0.826900000000     0.447700000000     0          
C1076    C      0.871600000000     0.918500000000     0.374000000000     0          
O1077    O      0.594700000000     0.031100000000     0.251800000000     0          
C1078    C      0.692300000000     0.970900000000     0.275400000000     0          
H1079    H      0.704390000000     0.950780000000     0.275110000000     0          
C1080    C      0.658700000000     0.971700000000     0.267200000000     0          
H1081    H      0.648120000000     0.951790000000     0.260950000000     0          
O1082    O      0.969100000000     0.160000000000     0.531500000000     0          
C1083    C      0.806800000000     0.031400000000     0.661900000000     0          
H1084    H      0.795760000000     0.051360000000     0.667230000000     0          
C1085    C      0.836000000000     0.030700000000     0.643500000000     0          
C1086    C      0.852700000000     0.061600000000     0.634000000000     0          
O1087    O      0.935700000000     0.205700000000     0.562700000000     0          
C1088    C      0.914000000000     0.094100000000     0.583800000000     0          
H1089    H      0.917630000000     0.071050000000     0.581370000000     0          
C1090    C      0.889300000000     0.105400000000     0.604700000000     0          
C1091    C      0.884000000000     0.139000000000     0.608300000000     0          
H1092    H      0.867110000000     0.146750000000     0.622620000000     0          
C1093    C      0.903200000000     0.161400000000     0.590900000000     0          
H1094    H      0.899580000000     0.184380000000     0.593330000000     0          
C1095    C      0.927900000000     0.150100000000     0.569900000000     0          
C1096    C      0.933300000000     0.116400000000     0.566400000000     0          
H1097    H      0.950100000000     0.108680000000     0.552080000000     0          
C1098    C      0.949100000000     0.173100000000     0.552300000000     0          
C1099    C      0.871600000000     0.081500000000     0.626000000000     0          
O1100    O      0.594700000000     0.968900000000     0.748200000000     0          
C1101    C      0.692300000000     0.029100000000     0.724600000000     0          
H1102    H      0.704390000000     0.049220000000     0.724890000000     0          
C1103    C      0.658700000000     0.028300000000     0.732800000000     0          
H1104    H      0.648120000000     0.048210000000     0.739050000000     0          
Zr1105   Zr     0.043200000000     0.750000000000     0.456800000000     0          
Zr1106   Zr     0.956800000000     0.250000000000     0.456800000000     0          
Zr1107   Zr     0.956800000000     0.750000000000     0.543200000000     0          
Zr1108   Zr     0.043200000000     0.250000000000     0.543200000000     0          
Zr1109   Zr     0.456800000000     0.043200000000     0.750000000000     0          
Zr1110   Zr     0.456800000000     0.956800000000     0.250000000000     0          
Zr1111   Zr     0.543200000000     0.956800000000     0.750000000000     0          
Zr1112   Zr     0.543200000000     0.043200000000     0.250000000000     0          
Zr1113   Zr     0.750000000000     0.456800000000     0.043200000000     0          
Zr1114   Zr     0.250000000000     0.456800000000     0.956800000000     0          
Zr1115   Zr     0.750000000000     0.543200000000     0.956800000000     0          
Zr1116   Zr     0.250000000000     0.543200000000     0.043200000000     0          
Zr1117   Zr     0.956800000000     0.250000000000     0.543200000000     0          
Zr1118   Zr     0.043200000000     0.750000000000     0.543200000000     0          
Zr1119   Zr     0.043200000000     0.250000000000     0.456800000000     0          
Zr1120   Zr     0.956800000000     0.750000000000     0.456800000000     0          
Zr1121   Zr     0.543200000000     0.956800000000     0.250000000000     0          
Zr1122   Zr     0.543200000000     0.043200000000     0.750000000000     0          
Zr1123   Zr     0.456800000000     0.043200000000     0.250000000000     0          
Zr1124   Zr     0.456800000000     0.956800000000     0.750000000000     0          
Zr1125   Zr     0.250000000000     0.543200000000     0.956800000000     0          
Zr1126   Zr     0.750000000000     0.543200000000     0.043200000000     0          
Zr1127   Zr     0.250000000000     0.456800000000     0.043200000000     0          
Zr1128   Zr     0.750000000000     0.456800000000     0.956800000000     0          
C1129    C      0.245000000000     0.500000000000     0.103000000000     0          
C1130    C      0.189900000000     0.500000000000     0.263900000000     0          
C1131    C      0.216300000000     0.500000000000     0.207200000000     0          
C1132    C      0.200600000000     0.500000000000     0.238700000000     0          
C1133    C      0.135300000000     0.500000000000     0.351600000000     0          
H1134    H      0.124460000000     0.500000000000     0.372370000000     0          
C1135    C      0.172100000000     0.500000000000     0.294900000000     0          
C1136    C      0.232000000000     0.500000000000     0.140900000000     0          
C1137    C      0.755000000000     0.500000000000     0.103000000000     0          
C1138    C      0.810100000000     0.500000000000     0.263900000000     0          
C1139    C      0.783700000000     0.500000000000     0.207200000000     0          
C1140    C      0.799400000000     0.500000000000     0.238700000000     0          
C1141    C      0.864700000000     0.500000000000     0.351600000000     0          
H1142    H      0.875540000000     0.500000000000     0.372370000000     0          
C1143    C      0.827900000000     0.500000000000     0.294900000000     0          
C1144    C      0.768000000000     0.500000000000     0.140900000000     0          
C1145    C      0.755000000000     0.500000000000     0.897000000000     0          
C1146    C      0.810100000000     0.500000000000     0.736100000000     0          
C1147    C      0.783700000000     0.500000000000     0.792800000000     0          
C1148    C      0.799400000000     0.500000000000     0.761300000000     0          
C1149    C      0.864700000000     0.500000000000     0.648400000000     0          
H1150    H      0.875540000000     0.500000000000     0.627630000000     0          
C1151    C      0.827900000000     0.500000000000     0.705100000000     0          
C1152    C      0.768000000000     0.500000000000     0.859100000000     0          
C1153    C      0.245000000000     0.500000000000     0.897000000000     0          
C1154    C      0.189900000000     0.500000000000     0.736100000000     0          
C1155    C      0.216300000000     0.500000000000     0.792800000000     0          
C1156    C      0.200600000000     0.500000000000     0.761300000000     0          
C1157    C      0.135300000000     0.500000000000     0.648400000000     0          
H1158    H      0.124460000000     0.500000000000     0.627630000000     0          
C1159    C      0.172100000000     0.500000000000     0.705100000000     0          
C1160    C      0.232000000000     0.500000000000     0.859100000000     0          
C1161    C      0.103000000000     0.245000000000     0.500000000000     0          
C1162    C      0.263900000000     0.189900000000     0.500000000000     0          
C1163    C      0.207200000000     0.216300000000     0.500000000000     0          
C1164    C      0.238700000000     0.200600000000     0.500000000000     0          
C1165    C      0.351600000000     0.135300000000     0.500000000000     0          
H1166    H      0.372370000000     0.124460000000     0.500000000000     0          
C1167    C      0.294900000000     0.172100000000     0.500000000000     0          
C1168    C      0.140900000000     0.232000000000     0.500000000000     0          
C1169    C      0.103000000000     0.755000000000     0.500000000000     0          
C1170    C      0.263900000000     0.810100000000     0.500000000000     0          
C1171    C      0.207200000000     0.783700000000     0.500000000000     0          
C1172    C      0.238700000000     0.799400000000     0.500000000000     0          
C1173    C      0.351600000000     0.864700000000     0.500000000000     0          
H1174    H      0.372370000000     0.875540000000     0.500000000000     0          
C1175    C      0.294900000000     0.827900000000     0.500000000000     0          
C1176    C      0.140900000000     0.768000000000     0.500000000000     0          
C1177    C      0.897000000000     0.755000000000     0.500000000000     0          
C1178    C      0.736100000000     0.810100000000     0.500000000000     0          
C1179    C      0.792800000000     0.783700000000     0.500000000000     0          
C1180    C      0.761300000000     0.799400000000     0.500000000000     0          
C1181    C      0.648400000000     0.864700000000     0.500000000000     0          
H1182    H      0.627630000000     0.875540000000     0.500000000000     0          
C1183    C      0.705100000000     0.827900000000     0.500000000000     0          
C1184    C      0.859100000000     0.768000000000     0.500000000000     0          
C1185    C      0.897000000000     0.245000000000     0.500000000000     0          
C1186    C      0.736100000000     0.189900000000     0.500000000000     0          
C1187    C      0.792800000000     0.216300000000     0.500000000000     0          
C1188    C      0.761300000000     0.200600000000     0.500000000000     0          
C1189    C      0.648400000000     0.135300000000     0.500000000000     0          
H1190    H      0.627630000000     0.124460000000     0.500000000000     0          
C1191    C      0.705100000000     0.172100000000     0.500000000000     0          
C1192    C      0.859100000000     0.232000000000     0.500000000000     0          
C1193    C      0.500000000000     0.103000000000     0.245000000000     0          
C1194    C      0.500000000000     0.263900000000     0.189900000000     0          
C1195    C      0.500000000000     0.207200000000     0.216300000000     0          
C1196    C      0.500000000000     0.238700000000     0.200600000000     0          
C1197    C      0.500000000000     0.351600000000     0.135300000000     0          
H1198    H      0.500000000000     0.372370000000     0.124460000000     0          
C1199    C      0.500000000000     0.294900000000     0.172100000000     0          
C1200    C      0.500000000000     0.140900000000     0.232000000000     0          
C1201    C      0.500000000000     0.103000000000     0.755000000000     0          
C1202    C      0.500000000000     0.263900000000     0.810100000000     0          
C1203    C      0.500000000000     0.207200000000     0.783700000000     0          
C1204    C      0.500000000000     0.238700000000     0.799400000000     0          
C1205    C      0.500000000000     0.351600000000     0.864700000000     0          
H1206    H      0.500000000000     0.372370000000     0.875540000000     0          
C1207    C      0.500000000000     0.294900000000     0.827900000000     0          
C1208    C      0.500000000000     0.140900000000     0.768000000000     0          
C1209    C      0.500000000000     0.897000000000     0.755000000000     0          
C1210    C      0.500000000000     0.736100000000     0.810100000000     0          
C1211    C      0.500000000000     0.792800000000     0.783700000000     0          
C1212    C      0.500000000000     0.761300000000     0.799400000000     0          
C1213    C      0.500000000000     0.648400000000     0.864700000000     0          
H1214    H      0.500000000000     0.627630000000     0.875540000000     0          
C1215    C      0.500000000000     0.705100000000     0.827900000000     0          
C1216    C      0.500000000000     0.859100000000     0.768000000000     0          
C1217    C      0.500000000000     0.897000000000     0.245000000000     0          
C1218    C      0.500000000000     0.736100000000     0.189900000000     0          
C1219    C      0.500000000000     0.792800000000     0.216300000000     0          
C1220    C      0.500000000000     0.761300000000     0.200600000000     0          
C1221    C      0.500000000000     0.648400000000     0.135300000000     0          
H1222    H      0.500000000000     0.627630000000     0.124460000000     0          
C1223    C      0.500000000000     0.705100000000     0.172100000000     0          
C1224    C      0.500000000000     0.859100000000     0.232000000000     0          
C1225    C      0.000000000000     0.745000000000     0.397000000000     0          
C1226    C      0.000000000000     0.689900000000     0.236100000000     0          
C1227    C      0.000000000000     0.716300000000     0.292800000000     0          
C1228    C      0.000000000000     0.700600000000     0.261300000000     0          
C1229    C      0.000000000000     0.635300000000     0.148400000000     0          
H1230    H      0.000000000000     0.624460000000     0.127630000000     0          
C1231    C      0.000000000000     0.672100000000     0.205100000000     0          
C1232    C      0.000000000000     0.732000000000     0.359100000000     0          
C1233    C      0.000000000000     0.255000000000     0.397000000000     0          
C1234    C      0.000000000000     0.310100000000     0.236100000000     0          
C1235    C      0.000000000000     0.283700000000     0.292800000000     0          
C1236    C      0.000000000000     0.299400000000     0.261300000000     0          
C1237    C      0.000000000000     0.364700000000     0.148400000000     0          
H1238    H      0.000000000000     0.375540000000     0.127630000000     0          
C1239    C      0.000000000000     0.327900000000     0.205100000000     0          
C1240    C      0.000000000000     0.268000000000     0.359100000000     0          
C1241    C      0.000000000000     0.255000000000     0.603000000000     0          
C1242    C      0.000000000000     0.310100000000     0.763900000000     0          
C1243    C      0.000000000000     0.283700000000     0.707200000000     0          
C1244    C      0.000000000000     0.299400000000     0.738700000000     0          
C1245    C      0.000000000000     0.364700000000     0.851600000000     0          
H1246    H      0.000000000000     0.375540000000     0.872370000000     0          
C1247    C      0.000000000000     0.327900000000     0.794900000000     0          
C1248    C      0.000000000000     0.268000000000     0.640900000000     0          
C1249    C      0.000000000000     0.745000000000     0.603000000000     0          
C1250    C      0.000000000000     0.689900000000     0.763900000000     0          
C1251    C      0.000000000000     0.716300000000     0.707200000000     0          
C1252    C      0.000000000000     0.700600000000     0.738700000000     0          
C1253    C      0.000000000000     0.635300000000     0.851600000000     0          
H1254    H      0.000000000000     0.624460000000     0.872370000000     0          
C1255    C      0.000000000000     0.672100000000     0.794900000000     0          
C1256    C      0.000000000000     0.732000000000     0.640900000000     0          
C1257    C      0.745000000000     0.603000000000     0.000000000000     0          
C1258    C      0.689900000000     0.763900000000     0.000000000000     0          
C1259    C      0.716300000000     0.707200000000     0.000000000000     0          
C1260    C      0.700600000000     0.738700000000     0.000000000000     0          
C1261    C      0.635300000000     0.851600000000     0.000000000000     0          
H1262    H      0.624460000000     0.872370000000     0.000000000000     0          
C1263    C      0.672100000000     0.794900000000     0.000000000000     0          
C1264    C      0.732000000000     0.640900000000     0.000000000000     0          
C1265    C      0.255000000000     0.603000000000     0.000000000000     0          
C1266    C      0.310100000000     0.763900000000     0.000000000000     0          
C1267    C      0.283700000000     0.707200000000     0.000000000000     0          
C1268    C      0.299400000000     0.738700000000     0.000000000000     0          
C1269    C      0.364700000000     0.851600000000     0.000000000000     0          
H1270    H      0.375540000000     0.872370000000     0.000000000000     0          
C1271    C      0.327900000000     0.794900000000     0.000000000000     0          
C1272    C      0.268000000000     0.640900000000     0.000000000000     0          
C1273    C      0.255000000000     0.397000000000     0.000000000000     0          
C1274    C      0.310100000000     0.236100000000     0.000000000000     0          
C1275    C      0.283700000000     0.292800000000     0.000000000000     0          
C1276    C      0.299400000000     0.261300000000     0.000000000000     0          
C1277    C      0.364700000000     0.148400000000     0.000000000000     0          
H1278    H      0.375540000000     0.127630000000     0.000000000000     0          
C1279    C      0.327900000000     0.205100000000     0.000000000000     0          
C1280    C      0.268000000000     0.359100000000     0.000000000000     0          
C1281    C      0.745000000000     0.397000000000     0.000000000000     0          
C1282    C      0.689900000000     0.236100000000     0.000000000000     0          
C1283    C      0.716300000000     0.292800000000     0.000000000000     0          
C1284    C      0.700600000000     0.261300000000     0.000000000000     0          
C1285    C      0.635300000000     0.148400000000     0.000000000000     0          
H1286    H      0.624460000000     0.127630000000     0.000000000000     0          
C1287    C      0.672100000000     0.205100000000     0.000000000000     0          
C1288    C      0.732000000000     0.359100000000     0.000000000000     0          
C1289    C      0.603000000000     0.000000000000     0.255000000000     0          
C1290    C      0.763900000000     0.000000000000     0.310100000000     0          
C1291    C      0.707200000000     0.000000000000     0.283700000000     0          
C1292    C      0.738700000000     0.000000000000     0.299400000000     0          
C1293    C      0.851600000000     0.000000000000     0.364700000000     0          
H1294    H      0.872370000000     0.000000000000     0.375540000000     0          
C1295    C      0.794900000000     0.000000000000     0.327900000000     0          
C1296    C      0.640900000000     0.000000000000     0.268000000000     0          
C1297    C      0.603000000000     0.000000000000     0.745000000000     0          
C1298    C      0.763900000000     0.000000000000     0.689900000000     0          
C1299    C      0.707200000000     0.000000000000     0.716300000000     0          
C1300    C      0.738700000000     0.000000000000     0.700600000000     0          
C1301    C      0.851600000000     0.000000000000     0.635300000000     0          
H1302    H      0.872370000000     0.000000000000     0.624460000000     0          
C1303    C      0.794900000000     0.000000000000     0.672100000000     0          
C1304    C      0.640900000000     0.000000000000     0.732000000000     0          
C1305    C      0.397000000000     0.000000000000     0.745000000000     0          
C1306    C      0.236100000000     0.000000000000     0.689900000000     0          
C1307    C      0.292800000000     0.000000000000     0.716300000000     0          
C1308    C      0.261300000000     0.000000000000     0.700600000000     0          
C1309    C      0.148400000000     0.000000000000     0.635300000000     0          
H1310    H      0.127630000000     0.000000000000     0.624460000000     0          
C1311    C      0.205100000000     0.000000000000     0.672100000000     0          
C1312    C      0.359100000000     0.000000000000     0.732000000000     0          
C1313    C      0.397000000000     0.000000000000     0.255000000000     0          
C1314    C      0.236100000000     0.000000000000     0.310100000000     0          
C1315    C      0.292800000000     0.000000000000     0.283700000000     0          
C1316    C      0.261300000000     0.000000000000     0.299400000000     0          
C1317    C      0.148400000000     0.000000000000     0.364700000000     0          
H1318    H      0.127630000000     0.000000000000     0.375540000000     0          
C1319    C      0.205100000000     0.000000000000     0.327900000000     0          
C1320    C      0.359100000000     0.000000000000     0.268000000000     0          
Zr1321   Zr     0.000000000000     0.688600000000     0.500000000000     0          
Zr1322   Zr     0.000000000000     0.311400000000     0.500000000000     0          
Zr1323   Zr     0.500000000000     0.000000000000     0.688600000000     0          
Zr1324   Zr     0.500000000000     0.000000000000     0.311400000000     0          
Zr1325   Zr     0.688600000000     0.500000000000     0.000000000000     0          
Zr1326   Zr     0.311400000000     0.500000000000     0.000000000000     0          
Zr1327   Zr     0.188600000000     0.500000000000     0.000000000000     0          
Zr1328   Zr     0.811400000000     0.500000000000     0.000000000000     0          
Zr1329   Zr     0.500000000000     0.000000000000     0.811400000000     0          
Zr1330   Zr     0.500000000000     0.000000000000     0.188600000000     0          
Zr1331   Zr     0.000000000000     0.188600000000     0.500000000000     0          
Zr1332   Zr     0.000000000000     0.811400000000     0.500000000000     0          
O1333    O      0.040400000000     0.714500000000     0.500000000000     0          
H1334    H      0.064030000000     0.702280000000     0.500000000000     0          
O1335    O      0.959600000000     0.285500000000     0.500000000000     0          
H1336    H      0.935970000000     0.297720000000     0.500000000000     0          
O1337    O      0.959600000000     0.714500000000     0.500000000000     0          
H1338    H      0.935970000000     0.702280000000     0.500000000000     0          
O1339    O      0.040400000000     0.285500000000     0.500000000000     0          
H1340    H      0.064030000000     0.297720000000     0.500000000000     0          
O1341    O      0.500000000000     0.040400000000     0.714500000000     0          
H1342    H      0.500000000000     0.064030000000     0.702280000000     0          
O1343    O      0.500000000000     0.959600000000     0.285500000000     0          
H1344    H      0.500000000000     0.935970000000     0.297720000000     0          
O1345    O      0.500000000000     0.959600000000     0.714500000000     0          
H1346    H      0.500000000000     0.935970000000     0.702280000000     0          
O1347    O      0.500000000000     0.040400000000     0.285500000000     0          
H1348    H      0.500000000000     0.064030000000     0.297720000000     0          
O1349    O      0.714500000000     0.500000000000     0.040400000000     0          
H1350    H      0.702280000000     0.500000000000     0.064030000000     0          
O1351    O      0.285500000000     0.500000000000     0.959600000000     0          
H1352    H      0.297720000000     0.500000000000     0.935970000000     0          
O1353    O      0.714500000000     0.500000000000     0.959600000000     0          
H1354    H      0.702280000000     0.500000000000     0.935970000000     0          
O1355    O      0.285500000000     0.500000000000     0.040400000000     0          
H1356    H      0.297720000000     0.500000000000     0.064030000000     0          
O1357    O      0.214500000000     0.540400000000     0.000000000000     0          
H1358    H      0.202280000000     0.564030000000     0.000000000000     0          
O1359    O      0.785500000000     0.459600000000     0.000000000000     0          
H1360    H      0.797720000000     0.435970000000     0.000000000000     0          
O1361    O      0.214500000000     0.459600000000     0.000000000000     0          
H1362    H      0.202280000000     0.435970000000     0.000000000000     0          
O1363    O      0.785500000000     0.540400000000     0.000000000000     0          
H1364    H      0.797720000000     0.564030000000     0.000000000000     0          
O1365    O      0.540400000000     0.000000000000     0.785500000000     0          
H1366    H      0.564030000000     0.000000000000     0.797720000000     0          
O1367    O      0.459600000000     0.000000000000     0.214500000000     0          
H1368    H      0.435970000000     0.000000000000     0.202280000000     0          
O1369    O      0.459600000000     0.000000000000     0.785500000000     0          
H1370    H      0.435970000000     0.000000000000     0.797720000000     0          
O1371    O      0.540400000000     0.000000000000     0.214500000000     0          
H1372    H      0.564030000000     0.000000000000     0.202280000000     0          
O1373    O      0.000000000000     0.214500000000     0.459600000000     0          
H1374    H      0.000000000000     0.202280000000     0.435970000000     0          
O1375    O      0.000000000000     0.785500000000     0.540400000000     0          
H1376    H      0.000000000000     0.797720000000     0.564030000000     0          
O1377    O      0.000000000000     0.214500000000     0.540400000000     0          
H1378    H      0.000000000000     0.202280000000     0.564030000000     0          
O1379    O      0.000000000000     0.785500000000     0.459600000000     0          
H1380    H      0.000000000000     0.797720000000     0.435970000000     0          
O1381    O      0.000000000000     0.726300000000     0.461700000000     0          
O1382    O      0.000000000000     0.273700000000     0.461700000000     0          
O1383    O      0.000000000000     0.726300000000     0.538300000000     0          
O1384    O      0.000000000000     0.273700000000     0.538300000000     0          
O1385    O      0.461700000000     0.000000000000     0.726300000000     0          
O1386    O      0.461700000000     0.000000000000     0.273700000000     0          
O1387    O      0.538300000000     0.000000000000     0.726300000000     0          
O1388    O      0.538300000000     0.000000000000     0.273700000000     0          
O1389    O      0.726300000000     0.461700000000     0.000000000000     0          
O1390    O      0.273700000000     0.461700000000     0.000000000000     0          
O1391    O      0.726300000000     0.538300000000     0.000000000000     0          
O1392    O      0.273700000000     0.538300000000     0.000000000000     0          
O1393    O      0.226300000000     0.500000000000     0.038300000000     0          
O1394    O      0.773700000000     0.500000000000     0.038300000000     0          
O1395    O      0.226300000000     0.500000000000     0.961700000000     0          
O1396    O      0.773700000000     0.500000000000     0.961700000000     0          
O1397    O      0.500000000000     0.961700000000     0.773700000000     0          
O1398    O      0.500000000000     0.961700000000     0.226300000000     0          
O1399    O      0.500000000000     0.038300000000     0.773700000000     0          
O1400    O      0.500000000000     0.038300000000     0.226300000000     0          
O1401    O      0.961700000000     0.226300000000     0.500000000000     0          
O1402    O      0.961700000000     0.773700000000     0.500000000000     0          
O1403    O      0.038300000000     0.226300000000     0.500000000000     0          
O1404    O      0.038300000000     0.773700000000     0.500000000000     0          


