data_UFOSIU_Zr_MOFs_Nov2018+3updates\(2)
_audit_creation_date              2021-01-11
_audit_creation_method            'Materials Studio'
_symmetry_space_group_name_H-M    'P1'
_symmetry_Int_Tables_number       1
_symmetry_cell_setting            triclinic
loop_
_symmetry_equiv_pos_as_xyz
  x,y,z
_cell_length_a                    20.7439
_cell_length_b                    20.7439
_cell_length_c                    20.7439
_cell_angle_alpha                 90.0000
_cell_angle_beta                  90.0000
_cell_angle_gamma                 90.0000
loop_
_atom_site_label
_atom_site_type_symbol
_atom_site_fract_x
_atom_site_fract_y
_atom_site_fract_z
_atom_site_U_iso_or_equiv
_atom_site_adp_type
_atom_site_occupancy
Zr1    Zr    0.11961   0.00000   0.00000   0.00000  Uiso   1.00
Zr2    Zr    0.11961   0.50000   0.50000   0.00000  Uiso   1.00
Zr3    Zr    0.61961   0.00000   0.50000   0.00000  Uiso   1.00
Zr4    Zr    0.61961   0.50000   0.00000   0.00000  Uiso   1.00
Zr5    Zr    0.88039   0.00000   0.00000   0.00000  Uiso   1.00
Zr6    Zr    0.88039   0.50000   0.50000   0.00000  Uiso   1.00
Zr7    Zr    0.38039   0.00000   0.50000   0.00000  Uiso   1.00
Zr8    Zr    0.38039   0.50000   0.00000   0.00000  Uiso   1.00
Zr9    Zr    0.00000   0.11961   0.00000   0.00000  Uiso   1.00
Zr10   Zr    0.00000   0.61961   0.50000   0.00000  Uiso   1.00
Zr11   Zr    0.50000   0.11961   0.50000   0.00000  Uiso   1.00
Zr12   Zr    0.50000   0.61961   0.00000   0.00000  Uiso   1.00
Zr13   Zr    0.00000   0.88039   0.00000   0.00000  Uiso   1.00
Zr14   Zr    0.00000   0.38039   0.50000   0.00000  Uiso   1.00
Zr15   Zr    0.50000   0.88039   0.50000   0.00000  Uiso   1.00
Zr16   Zr    0.50000   0.38039   0.00000   0.00000  Uiso   1.00
Zr17   Zr    0.00000   0.00000   0.11961   0.00000  Uiso   1.00
Zr18   Zr    0.00000   0.50000   0.61961   0.00000  Uiso   1.00
Zr19   Zr    0.50000   0.00000   0.61961   0.00000  Uiso   1.00
Zr20   Zr    0.50000   0.50000   0.11961   0.00000  Uiso   1.00
Zr21   Zr    0.00000   0.00000   0.88039   0.00000  Uiso   1.00
Zr22   Zr    0.00000   0.50000   0.38039   0.00000  Uiso   1.00
Zr23   Zr    0.50000   0.00000   0.38039   0.00000  Uiso   1.00
Zr24   Zr    0.50000   0.50000   0.88039   0.00000  Uiso   1.00
O25    O     0.17335   0.90770   0.00000   0.00000  Uiso   1.00
C26    C     0.26710   0.81450   0.00000   0.00000  Uiso   1.00
H27    H     0.27890   0.85870   0.00000   0.00000  Uiso   1.00
O29    O     0.17335   0.40770   0.50000   0.00000  Uiso   1.00
C30    C     0.26710   0.31450   0.50000   0.00000  Uiso   1.00
H31    H     0.27890   0.35870   0.50000   0.00000  Uiso   1.00
O33    O     0.67335   0.90770   0.50000   0.00000  Uiso   1.00
C34    C     0.76710   0.81450   0.50000   0.00000  Uiso   1.00
H35    H     0.77890   0.85870   0.50000   0.00000  Uiso   1.00
O37    O     0.67335   0.40770   0.00000   0.00000  Uiso   1.00
C38    C     0.76710   0.31450   0.00000   0.00000  Uiso   1.00
H39    H     0.77890   0.35870   0.00000   0.00000  Uiso   1.00
O41    O     0.82665   0.09230   0.00000   0.00000  Uiso   1.00
C42    C     0.73290   0.18550   0.00000   0.00000  Uiso   1.00
H43    H     0.72110   0.14130   0.00000   0.00000  Uiso   1.00
O45    O     0.82665   0.59230   0.50000   0.00000  Uiso   1.00
C46    C     0.73290   0.68550   0.50000   0.00000  Uiso   1.00
H47    H     0.72110   0.64130   0.50000   0.00000  Uiso   1.00
O49    O     0.32665   0.09230   0.50000   0.00000  Uiso   1.00
C50    C     0.23290   0.18550   0.50000   0.00000  Uiso   1.00
H51    H     0.22110   0.14130   0.50000   0.00000  Uiso   1.00
O53    O     0.32665   0.59230   0.00000   0.00000  Uiso   1.00
C54    C     0.23290   0.68550   0.00000   0.00000  Uiso   1.00
H55    H     0.22110   0.64130   0.00000   0.00000  Uiso   1.00
O57    O     0.82665   0.90770   0.00000   0.00000  Uiso   1.00
C58    C     0.73290   0.81450   0.00000   0.00000  Uiso   1.00
H59    H     0.72110   0.85870   0.00000   0.00000  Uiso   1.00
O61    O     0.82665   0.40770   0.50000   0.00000  Uiso   1.00
C62    C     0.73290   0.31450   0.50000   0.00000  Uiso   1.00
H63    H     0.72110   0.35870   0.50000   0.00000  Uiso   1.00
O65    O     0.32665   0.90770   0.50000   0.00000  Uiso   1.00
C66    C     0.23290   0.81450   0.50000   0.00000  Uiso   1.00
H67    H     0.22110   0.85870   0.50000   0.00000  Uiso   1.00
O69    O     0.32665   0.40770   0.00000   0.00000  Uiso   1.00
C70    C     0.23290   0.31450   0.00000   0.00000  Uiso   1.00
H71    H     0.22110   0.35870   0.00000   0.00000  Uiso   1.00
O73    O     0.17335   0.09230   0.00000   0.00000  Uiso   1.00
C74    C     0.26710   0.18550   0.00000   0.00000  Uiso   1.00
H75    H     0.27890   0.14130   0.00000   0.00000  Uiso   1.00
O77    O     0.17335   0.59230   0.50000   0.00000  Uiso   1.00
C78    C     0.26710   0.68550   0.50000   0.00000  Uiso   1.00
H79    H     0.27890   0.64130   0.50000   0.00000  Uiso   1.00
O81    O     0.67335   0.09230   0.50000   0.00000  Uiso   1.00
C82    C     0.76710   0.18550   0.50000   0.00000  Uiso   1.00
H83    H     0.77890   0.14130   0.50000   0.00000  Uiso   1.00
O85    O     0.67335   0.59230   0.00000   0.00000  Uiso   1.00
C86    C     0.76710   0.68550   0.00000   0.00000  Uiso   1.00
H87    H     0.77890   0.64130   0.00000   0.00000  Uiso   1.00
O89    O     0.00000   0.17335   0.90770   0.00000  Uiso   1.00
C90    C     0.00000   0.26710   0.81450   0.00000  Uiso   1.00
H91    H     0.00000   0.27890   0.85870   0.00000  Uiso   1.00
O93    O     0.00000   0.67335   0.40770   0.00000  Uiso   1.00
C94    C     0.00000   0.76710   0.31450   0.00000  Uiso   1.00
H95    H     0.00000   0.77890   0.35870   0.00000  Uiso   1.00
O97    O     0.50000   0.17335   0.40770   0.00000  Uiso   1.00
C98    C     0.50000   0.26710   0.31450   0.00000  Uiso   1.00
H99    H     0.50000   0.27890   0.35870   0.00000  Uiso   1.00
O101   O     0.50000   0.67335   0.90770   0.00000  Uiso   1.00
C102   C     0.50000   0.76710   0.81450   0.00000  Uiso   1.00
H103   H     0.50000   0.77890   0.85870   0.00000  Uiso   1.00
O105   O     0.00000   0.82665   0.09230   0.00000  Uiso   1.00
C106   C     0.00000   0.73290   0.18550   0.00000  Uiso   1.00
H107   H     0.00000   0.72110   0.14130   0.00000  Uiso   1.00
O109   O     0.00000   0.32665   0.59230   0.00000  Uiso   1.00
C110   C     0.00000   0.23290   0.68550   0.00000  Uiso   1.00
H111   H     0.00000   0.22110   0.64130   0.00000  Uiso   1.00
O113   O     0.50000   0.82665   0.59230   0.00000  Uiso   1.00
C114   C     0.50000   0.73290   0.68550   0.00000  Uiso   1.00
H115   H     0.50000   0.72110   0.64130   0.00000  Uiso   1.00
O117   O     0.50000   0.32665   0.09230   0.00000  Uiso   1.00
C118   C     0.50000   0.23290   0.18550   0.00000  Uiso   1.00
H119   H     0.50000   0.22110   0.14130   0.00000  Uiso   1.00
O121   O     0.00000   0.82665   0.90770   0.00000  Uiso   1.00
C122   C     0.00000   0.73290   0.81450   0.00000  Uiso   1.00
H123   H     0.00000   0.72110   0.85870   0.00000  Uiso   1.00
O125   O     0.00000   0.32665   0.40770   0.00000  Uiso   1.00
C126   C     0.00000   0.23290   0.31450   0.00000  Uiso   1.00
H127   H     0.00000   0.22110   0.35870   0.00000  Uiso   1.00
O129   O     0.50000   0.82665   0.40770   0.00000  Uiso   1.00
C130   C     0.50000   0.73290   0.31450   0.00000  Uiso   1.00
H131   H     0.50000   0.72110   0.35870   0.00000  Uiso   1.00
O133   O     0.50000   0.32665   0.90770   0.00000  Uiso   1.00
C134   C     0.50000   0.23290   0.81450   0.00000  Uiso   1.00
H135   H     0.50000   0.22110   0.85870   0.00000  Uiso   1.00
O137   O     0.00000   0.17335   0.09230   0.00000  Uiso   1.00
C138   C     0.00000   0.26710   0.18550   0.00000  Uiso   1.00
H139   H     0.00000   0.27890   0.14130   0.00000  Uiso   1.00
O141   O     0.00000   0.67335   0.59230   0.00000  Uiso   1.00
C142   C     0.00000   0.76710   0.68550   0.00000  Uiso   1.00
H143   H     0.00000   0.77890   0.64130   0.00000  Uiso   1.00
O145   O     0.50000   0.17335   0.59230   0.00000  Uiso   1.00
C146   C     0.50000   0.26710   0.68550   0.00000  Uiso   1.00
H147   H     0.50000   0.27890   0.64130   0.00000  Uiso   1.00
O149   O     0.50000   0.67335   0.09230   0.00000  Uiso   1.00
C150   C     0.50000   0.76710   0.18550   0.00000  Uiso   1.00
H151   H     0.50000   0.77890   0.14130   0.00000  Uiso   1.00
O153   O     0.90770   0.00000   0.17335   0.00000  Uiso   1.00
C154   C     0.81450   0.00000   0.26710   0.00000  Uiso   1.00
H155   H     0.85870   0.00000   0.27890   0.00000  Uiso   1.00
O157   O     0.90770   0.50000   0.67335   0.00000  Uiso   1.00
C158   C     0.81450   0.50000   0.76710   0.00000  Uiso   1.00
H159   H     0.85870   0.50000   0.77890   0.00000  Uiso   1.00
O161   O     0.40770   0.00000   0.67335   0.00000  Uiso   1.00
C162   C     0.31450   0.00000   0.76710   0.00000  Uiso   1.00
H163   H     0.35870   0.00000   0.77890   0.00000  Uiso   1.00
O165   O     0.40770   0.50000   0.17335   0.00000  Uiso   1.00
C166   C     0.31450   0.50000   0.26710   0.00000  Uiso   1.00
H167   H     0.35870   0.50000   0.27890   0.00000  Uiso   1.00
O169   O     0.09230   0.00000   0.82665   0.00000  Uiso   1.00
C170   C     0.18550   0.00000   0.73290   0.00000  Uiso   1.00
H171   H     0.14130   0.00000   0.72110   0.00000  Uiso   1.00
O173   O     0.09230   0.50000   0.32665   0.00000  Uiso   1.00
C174   C     0.18550   0.50000   0.23290   0.00000  Uiso   1.00
H175   H     0.14130   0.50000   0.22110   0.00000  Uiso   1.00
O177   O     0.59230   0.00000   0.32665   0.00000  Uiso   1.00
C178   C     0.68550   0.00000   0.23290   0.00000  Uiso   1.00
H179   H     0.64130   0.00000   0.22110   0.00000  Uiso   1.00
O181   O     0.59230   0.50000   0.82665   0.00000  Uiso   1.00
C182   C     0.68550   0.50000   0.73290   0.00000  Uiso   1.00
H183   H     0.64130   0.50000   0.72110   0.00000  Uiso   1.00
O185   O     0.90770   0.00000   0.82665   0.00000  Uiso   1.00
C186   C     0.81450   0.00000   0.73290   0.00000  Uiso   1.00
H187   H     0.85870   0.00000   0.72110   0.00000  Uiso   1.00
O189   O     0.90770   0.50000   0.32665   0.00000  Uiso   1.00
C190   C     0.81450   0.50000   0.23290   0.00000  Uiso   1.00
H191   H     0.85870   0.50000   0.22110   0.00000  Uiso   1.00
O193   O     0.40770   0.00000   0.32665   0.00000  Uiso   1.00
C194   C     0.31450   0.00000   0.23290   0.00000  Uiso   1.00
H195   H     0.35870   0.00000   0.22110   0.00000  Uiso   1.00
O197   O     0.40770   0.50000   0.82665   0.00000  Uiso   1.00
C198   C     0.31450   0.50000   0.73290   0.00000  Uiso   1.00
H199   H     0.35870   0.50000   0.72110   0.00000  Uiso   1.00
O201   O     0.09230   0.00000   0.17335   0.00000  Uiso   1.00
C202   C     0.18550   0.00000   0.26710   0.00000  Uiso   1.00
H203   H     0.14130   0.00000   0.27890   0.00000  Uiso   1.00
O205   O     0.09230   0.50000   0.67335   0.00000  Uiso   1.00
C206   C     0.18550   0.50000   0.76710   0.00000  Uiso   1.00
H207   H     0.14130   0.50000   0.77890   0.00000  Uiso   1.00
O209   O     0.59230   0.00000   0.67335   0.00000  Uiso   1.00
C210   C     0.68550   0.00000   0.76710   0.00000  Uiso   1.00
H211   H     0.64130   0.00000   0.77890   0.00000  Uiso   1.00
O213   O     0.59230   0.50000   0.17335   0.00000  Uiso   1.00
C214   C     0.68550   0.50000   0.26710   0.00000  Uiso   1.00
H215   H     0.64130   0.50000   0.27890   0.00000  Uiso   1.00
O217   O     0.90770   0.17335   0.00000   0.00000  Uiso   1.00
C218   C     0.81450   0.26710   0.00000   0.00000  Uiso   1.00
H219   H     0.85870   0.27890   0.00000   0.00000  Uiso   1.00
O221   O     0.90770   0.67335   0.50000   0.00000  Uiso   1.00
C222   C     0.81450   0.76710   0.50000   0.00000  Uiso   1.00
H223   H     0.85870   0.77890   0.50000   0.00000  Uiso   1.00
O225   O     0.40770   0.17335   0.50000   0.00000  Uiso   1.00
C226   C     0.31450   0.26710   0.50000   0.00000  Uiso   1.00
H227   H     0.35870   0.27890   0.50000   0.00000  Uiso   1.00
O229   O     0.40770   0.67335   0.00000   0.00000  Uiso   1.00
C230   C     0.31450   0.76710   0.00000   0.00000  Uiso   1.00
H231   H     0.35870   0.77890   0.00000   0.00000  Uiso   1.00
O233   O     0.09230   0.82665   0.00000   0.00000  Uiso   1.00
C234   C     0.18550   0.73290   0.00000   0.00000  Uiso   1.00
H235   H     0.14130   0.72110   0.00000   0.00000  Uiso   1.00
O237   O     0.09230   0.32665   0.50000   0.00000  Uiso   1.00
C238   C     0.18550   0.23290   0.50000   0.00000  Uiso   1.00
H239   H     0.14130   0.22110   0.50000   0.00000  Uiso   1.00
O241   O     0.59230   0.82665   0.50000   0.00000  Uiso   1.00
C242   C     0.68550   0.73290   0.50000   0.00000  Uiso   1.00
H243   H     0.64130   0.72110   0.50000   0.00000  Uiso   1.00
O245   O     0.59230   0.32665   0.00000   0.00000  Uiso   1.00
C246   C     0.68550   0.23290   0.00000   0.00000  Uiso   1.00
H247   H     0.64130   0.22110   0.00000   0.00000  Uiso   1.00
O249   O     0.90770   0.82665   0.00000   0.00000  Uiso   1.00
C250   C     0.81450   0.73290   0.00000   0.00000  Uiso   1.00
H251   H     0.85870   0.72110   0.00000   0.00000  Uiso   1.00
O253   O     0.90770   0.32665   0.50000   0.00000  Uiso   1.00
C254   C     0.81450   0.23290   0.50000   0.00000  Uiso   1.00
H255   H     0.85870   0.22110   0.50000   0.00000  Uiso   1.00
O257   O     0.40770   0.82665   0.50000   0.00000  Uiso   1.00
C258   C     0.31450   0.73290   0.50000   0.00000  Uiso   1.00
H259   H     0.35870   0.72110   0.50000   0.00000  Uiso   1.00
O261   O     0.40770   0.32665   0.00000   0.00000  Uiso   1.00
C262   C     0.31450   0.23290   0.00000   0.00000  Uiso   1.00
H263   H     0.35870   0.22110   0.00000   0.00000  Uiso   1.00
O265   O     0.09230   0.17335   0.00000   0.00000  Uiso   1.00
C266   C     0.18550   0.26710   0.00000   0.00000  Uiso   1.00
H267   H     0.14130   0.27890   0.00000   0.00000  Uiso   1.00
O269   O     0.09230   0.67335   0.50000   0.00000  Uiso   1.00
C270   C     0.18550   0.76710   0.50000   0.00000  Uiso   1.00
H271   H     0.14130   0.77890   0.50000   0.00000  Uiso   1.00
O273   O     0.59230   0.17335   0.50000   0.00000  Uiso   1.00
C274   C     0.68550   0.26710   0.50000   0.00000  Uiso   1.00
H275   H     0.64130   0.27890   0.50000   0.00000  Uiso   1.00
O277   O     0.59230   0.67335   0.00000   0.00000  Uiso   1.00
C278   C     0.68550   0.76710   0.00000   0.00000  Uiso   1.00
H279   H     0.64130   0.77890   0.00000   0.00000  Uiso   1.00
O281   O     0.17335   0.00000   0.09230   0.00000  Uiso   1.00
C282   C     0.26710   0.00000   0.18550   0.00000  Uiso   1.00
H283   H     0.27890   0.00000   0.14130   0.00000  Uiso   1.00
O285   O     0.17335   0.50000   0.59230   0.00000  Uiso   1.00
C286   C     0.26710   0.50000   0.68550   0.00000  Uiso   1.00
H287   H     0.27890   0.50000   0.64130   0.00000  Uiso   1.00
O289   O     0.67335   0.00000   0.59230   0.00000  Uiso   1.00
C290   C     0.76710   0.00000   0.68550   0.00000  Uiso   1.00
H291   H     0.77890   0.00000   0.64130   0.00000  Uiso   1.00
O293   O     0.67335   0.50000   0.09230   0.00000  Uiso   1.00
C294   C     0.76710   0.50000   0.18550   0.00000  Uiso   1.00
H295   H     0.77890   0.50000   0.14130   0.00000  Uiso   1.00
O297   O     0.82665   0.00000   0.90770   0.00000  Uiso   1.00
C298   C     0.73290   0.00000   0.81450   0.00000  Uiso   1.00
H299   H     0.72110   0.00000   0.85870   0.00000  Uiso   1.00
O301   O     0.82665   0.50000   0.40770   0.00000  Uiso   1.00
C302   C     0.73290   0.50000   0.31450   0.00000  Uiso   1.00
H303   H     0.72110   0.50000   0.35870   0.00000  Uiso   1.00
O305   O     0.32665   0.00000   0.40770   0.00000  Uiso   1.00
C306   C     0.23290   0.00000   0.31450   0.00000  Uiso   1.00
H307   H     0.22110   0.00000   0.35870   0.00000  Uiso   1.00
O309   O     0.32665   0.50000   0.90770   0.00000  Uiso   1.00
C310   C     0.23290   0.50000   0.81450   0.00000  Uiso   1.00
H311   H     0.22110   0.50000   0.85870   0.00000  Uiso   1.00
O313   O     0.82665   0.00000   0.09230   0.00000  Uiso   1.00
C314   C     0.73290   0.00000   0.18550   0.00000  Uiso   1.00
H315   H     0.72110   0.00000   0.14130   0.00000  Uiso   1.00
O317   O     0.82665   0.50000   0.59230   0.00000  Uiso   1.00
C318   C     0.73290   0.50000   0.68550   0.00000  Uiso   1.00
H319   H     0.72110   0.50000   0.64130   0.00000  Uiso   1.00
O321   O     0.32665   0.00000   0.59230   0.00000  Uiso   1.00
C322   C     0.23290   0.00000   0.68550   0.00000  Uiso   1.00
H323   H     0.22110   0.00000   0.64130   0.00000  Uiso   1.00
O325   O     0.32665   0.50000   0.09230   0.00000  Uiso   1.00
C326   C     0.23290   0.50000   0.18550   0.00000  Uiso   1.00
H327   H     0.22110   0.50000   0.14130   0.00000  Uiso   1.00
O329   O     0.17335   0.00000   0.90770   0.00000  Uiso   1.00
C330   C     0.26710   0.00000   0.81450   0.00000  Uiso   1.00
H331   H     0.27890   0.00000   0.85870   0.00000  Uiso   1.00
O333   O     0.17335   0.50000   0.40770   0.00000  Uiso   1.00
C334   C     0.26710   0.50000   0.31450   0.00000  Uiso   1.00
H335   H     0.27890   0.50000   0.35870   0.00000  Uiso   1.00
O337   O     0.67335   0.00000   0.40770   0.00000  Uiso   1.00
C338   C     0.76710   0.00000   0.31450   0.00000  Uiso   1.00
H339   H     0.77890   0.00000   0.35870   0.00000  Uiso   1.00
O341   O     0.67335   0.50000   0.90770   0.00000  Uiso   1.00
C342   C     0.76710   0.50000   0.81450   0.00000  Uiso   1.00
H343   H     0.77890   0.50000   0.85870   0.00000  Uiso   1.00
O345   O     0.00000   0.90770   0.82665   0.00000  Uiso   1.00
C346   C     0.00000   0.81450   0.73290   0.00000  Uiso   1.00
H347   H     0.00000   0.85870   0.72110   0.00000  Uiso   1.00
O349   O     0.00000   0.40770   0.32665   0.00000  Uiso   1.00
C350   C     0.00000   0.31450   0.23290   0.00000  Uiso   1.00
H351   H     0.00000   0.35870   0.22110   0.00000  Uiso   1.00
O353   O     0.50000   0.90770   0.32665   0.00000  Uiso   1.00
C354   C     0.50000   0.81450   0.23290   0.00000  Uiso   1.00
H355   H     0.50000   0.85870   0.22110   0.00000  Uiso   1.00
O357   O     0.50000   0.40770   0.82665   0.00000  Uiso   1.00
C358   C     0.50000   0.31450   0.73290   0.00000  Uiso   1.00
H359   H     0.50000   0.35870   0.72110   0.00000  Uiso   1.00
O361   O     0.00000   0.09230   0.17335   0.00000  Uiso   1.00
C362   C     0.00000   0.18550   0.26710   0.00000  Uiso   1.00
H363   H     0.00000   0.14130   0.27890   0.00000  Uiso   1.00
O365   O     0.00000   0.59230   0.67335   0.00000  Uiso   1.00
C366   C     0.00000   0.68550   0.76710   0.00000  Uiso   1.00
H367   H     0.00000   0.64130   0.77890   0.00000  Uiso   1.00
O369   O     0.50000   0.09230   0.67335   0.00000  Uiso   1.00
C370   C     0.50000   0.18550   0.76710   0.00000  Uiso   1.00
H371   H     0.50000   0.14130   0.77890   0.00000  Uiso   1.00
O373   O     0.50000   0.59230   0.17335   0.00000  Uiso   1.00
C374   C     0.50000   0.68550   0.26710   0.00000  Uiso   1.00
H375   H     0.50000   0.64130   0.27890   0.00000  Uiso   1.00
O377   O     0.00000   0.90770   0.17335   0.00000  Uiso   1.00
C378   C     0.00000   0.81450   0.26710   0.00000  Uiso   1.00
H379   H     0.00000   0.85870   0.27890   0.00000  Uiso   1.00
O381   O     0.00000   0.40770   0.67335   0.00000  Uiso   1.00
C382   C     0.00000   0.31450   0.76710   0.00000  Uiso   1.00
H383   H     0.00000   0.35870   0.77890   0.00000  Uiso   1.00
O385   O     0.50000   0.90770   0.67335   0.00000  Uiso   1.00
C386   C     0.50000   0.81450   0.76710   0.00000  Uiso   1.00
H387   H     0.50000   0.85870   0.77890   0.00000  Uiso   1.00
O389   O     0.50000   0.40770   0.17335   0.00000  Uiso   1.00
C390   C     0.50000   0.31450   0.26710   0.00000  Uiso   1.00
H391   H     0.50000   0.35870   0.27890   0.00000  Uiso   1.00
O393   O     0.00000   0.09230   0.82665   0.00000  Uiso   1.00
C394   C     0.00000   0.18550   0.73290   0.00000  Uiso   1.00
H395   H     0.00000   0.14130   0.72110   0.00000  Uiso   1.00
O397   O     0.00000   0.59230   0.32665   0.00000  Uiso   1.00
C398   C     0.00000   0.68550   0.23290   0.00000  Uiso   1.00
H399   H     0.00000   0.64130   0.22110   0.00000  Uiso   1.00
O401   O     0.50000   0.09230   0.32665   0.00000  Uiso   1.00
C402   C     0.50000   0.18550   0.23290   0.00000  Uiso   1.00
H403   H     0.50000   0.14130   0.22110   0.00000  Uiso   1.00
O405   O     0.50000   0.59230   0.82665   0.00000  Uiso   1.00
C406   C     0.50000   0.68550   0.73290   0.00000  Uiso   1.00
H407   H     0.50000   0.64130   0.72110   0.00000  Uiso   1.00
C409   C     0.15160   0.84840   0.00000   0.00000  Uiso   1.00
C410   C     0.20280   0.79720   0.00000   0.00000  Uiso   1.00
C411   C     0.15160   0.34840   0.50000   0.00000  Uiso   1.00
C412   C     0.20280   0.29720   0.50000   0.00000  Uiso   1.00
C413   C     0.65160   0.84840   0.50000   0.00000  Uiso   1.00
C414   C     0.70280   0.79720   0.50000   0.00000  Uiso   1.00
C415   C     0.65160   0.34840   0.00000   0.00000  Uiso   1.00
C416   C     0.70280   0.29720   0.00000   0.00000  Uiso   1.00
C417   C     0.84840   0.15160   0.00000   0.00000  Uiso   1.00
C418   C     0.79720   0.20280   0.00000   0.00000  Uiso   1.00
C419   C     0.84840   0.65160   0.50000   0.00000  Uiso   1.00
C420   C     0.79720   0.70280   0.50000   0.00000  Uiso   1.00
C421   C     0.34840   0.15160   0.50000   0.00000  Uiso   1.00
C422   C     0.29720   0.20280   0.50000   0.00000  Uiso   1.00
C423   C     0.34840   0.65160   0.00000   0.00000  Uiso   1.00
C424   C     0.29720   0.70280   0.00000   0.00000  Uiso   1.00
C425   C     0.84840   0.84840   0.00000   0.00000  Uiso   1.00
C426   C     0.79720   0.79720   0.00000   0.00000  Uiso   1.00
C427   C     0.84840   0.34840   0.50000   0.00000  Uiso   1.00
C428   C     0.79720   0.29720   0.50000   0.00000  Uiso   1.00
C429   C     0.34840   0.84840   0.50000   0.00000  Uiso   1.00
C430   C     0.29720   0.79720   0.50000   0.00000  Uiso   1.00
C431   C     0.34840   0.34840   0.00000   0.00000  Uiso   1.00
C432   C     0.29720   0.29720   0.00000   0.00000  Uiso   1.00
C433   C     0.15160   0.15160   0.00000   0.00000  Uiso   1.00
C434   C     0.20280   0.20280   0.00000   0.00000  Uiso   1.00
C435   C     0.15160   0.65160   0.50000   0.00000  Uiso   1.00
C436   C     0.20280   0.70280   0.50000   0.00000  Uiso   1.00
C437   C     0.65160   0.15160   0.50000   0.00000  Uiso   1.00
C438   C     0.70280   0.20280   0.50000   0.00000  Uiso   1.00
C439   C     0.65160   0.65160   0.00000   0.00000  Uiso   1.00
C440   C     0.70280   0.70280   0.00000   0.00000  Uiso   1.00
C441   C     0.00000   0.15160   0.84840   0.00000  Uiso   1.00
C442   C     0.00000   0.20280   0.79720   0.00000  Uiso   1.00
C443   C     0.00000   0.65160   0.34840   0.00000  Uiso   1.00
C444   C     0.00000   0.70280   0.29720   0.00000  Uiso   1.00
C445   C     0.50000   0.15160   0.34840   0.00000  Uiso   1.00
C446   C     0.50000   0.20280   0.29720   0.00000  Uiso   1.00
C447   C     0.50000   0.65160   0.84840   0.00000  Uiso   1.00
C448   C     0.50000   0.70280   0.79720   0.00000  Uiso   1.00
C449   C     0.00000   0.84840   0.15160   0.00000  Uiso   1.00
C450   C     0.00000   0.79720   0.20280   0.00000  Uiso   1.00
C451   C     0.00000   0.34840   0.65160   0.00000  Uiso   1.00
C452   C     0.00000   0.29720   0.70280   0.00000  Uiso   1.00
C453   C     0.50000   0.84840   0.65160   0.00000  Uiso   1.00
C454   C     0.50000   0.79720   0.70280   0.00000  Uiso   1.00
C455   C     0.50000   0.34840   0.15160   0.00000  Uiso   1.00
C456   C     0.50000   0.29720   0.20280   0.00000  Uiso   1.00
C457   C     0.00000   0.84840   0.84840   0.00000  Uiso   1.00
C458   C     0.00000   0.79720   0.79720   0.00000  Uiso   1.00
C459   C     0.00000   0.34840   0.34840   0.00000  Uiso   1.00
C460   C     0.00000   0.29720   0.29720   0.00000  Uiso   1.00
C461   C     0.50000   0.84840   0.34840   0.00000  Uiso   1.00
C462   C     0.50000   0.79720   0.29720   0.00000  Uiso   1.00
C463   C     0.50000   0.34840   0.84840   0.00000  Uiso   1.00
C464   C     0.50000   0.29720   0.79720   0.00000  Uiso   1.00
C465   C     0.00000   0.15160   0.15160   0.00000  Uiso   1.00
C466   C     0.00000   0.20280   0.20280   0.00000  Uiso   1.00
C467   C     0.00000   0.65160   0.65160   0.00000  Uiso   1.00
C468   C     0.00000   0.70280   0.70280   0.00000  Uiso   1.00
C469   C     0.50000   0.15160   0.65160   0.00000  Uiso   1.00
C470   C     0.50000   0.20280   0.70280   0.00000  Uiso   1.00
C471   C     0.50000   0.65160   0.15160   0.00000  Uiso   1.00
C472   C     0.50000   0.70280   0.20280   0.00000  Uiso   1.00
C473   C     0.84840   0.00000   0.15160   0.00000  Uiso   1.00
C474   C     0.79720   0.00000   0.20280   0.00000  Uiso   1.00
C475   C     0.84840   0.50000   0.65160   0.00000  Uiso   1.00
C476   C     0.79720   0.50000   0.70280   0.00000  Uiso   1.00
C477   C     0.34840   0.00000   0.65160   0.00000  Uiso   1.00
C478   C     0.29720   0.00000   0.70280   0.00000  Uiso   1.00
C479   C     0.34840   0.50000   0.15160   0.00000  Uiso   1.00
C480   C     0.29720   0.50000   0.20280   0.00000  Uiso   1.00
C481   C     0.15160   0.00000   0.84840   0.00000  Uiso   1.00
C482   C     0.20280   0.00000   0.79720   0.00000  Uiso   1.00
C483   C     0.15160   0.50000   0.34840   0.00000  Uiso   1.00
C484   C     0.20280   0.50000   0.29720   0.00000  Uiso   1.00
C485   C     0.65160   0.00000   0.34840   0.00000  Uiso   1.00
C486   C     0.70280   0.00000   0.29720   0.00000  Uiso   1.00
C487   C     0.65160   0.50000   0.84840   0.00000  Uiso   1.00
C488   C     0.70280   0.50000   0.79720   0.00000  Uiso   1.00
C489   C     0.84840   0.00000   0.84840   0.00000  Uiso   1.00
C490   C     0.79720   0.00000   0.79720   0.00000  Uiso   1.00
C491   C     0.84840   0.50000   0.34840   0.00000  Uiso   1.00
C492   C     0.79720   0.50000   0.29720   0.00000  Uiso   1.00
C493   C     0.34840   0.00000   0.34840   0.00000  Uiso   1.00
C494   C     0.29720   0.00000   0.29720   0.00000  Uiso   1.00
C495   C     0.34840   0.50000   0.84840   0.00000  Uiso   1.00
C496   C     0.29720   0.50000   0.79720   0.00000  Uiso   1.00
C497   C     0.15160   0.00000   0.15160   0.00000  Uiso   1.00
C498   C     0.20280   0.00000   0.20280   0.00000  Uiso   1.00
C499   C     0.15160   0.50000   0.65160   0.00000  Uiso   1.00
C500   C     0.20280   0.50000   0.70280   0.00000  Uiso   1.00
C501   C     0.65160   0.00000   0.65160   0.00000  Uiso   1.00
C502   C     0.70280   0.00000   0.70280   0.00000  Uiso   1.00
C503   C     0.65160   0.50000   0.15160   0.00000  Uiso   1.00
C504   C     0.70280   0.50000   0.20280   0.00000  Uiso   1.00
O506   O     0.06790   0.06790   0.06790   0.00000  Uiso   1.00
H507   H     0.09010   0.09010   0.09010   0.00000  Uiso   1.00
O509   O     0.06790   0.56790   0.56790   0.00000  Uiso   1.00
H510   H     0.09010   0.59010   0.59010   0.00000  Uiso   1.00
O512   O     0.56790   0.06790   0.56790   0.00000  Uiso   1.00
H513   H     0.59010   0.09010   0.59010   0.00000  Uiso   1.00
O515   O     0.56790   0.56790   0.06790   0.00000  Uiso   1.00
H516   H     0.59010   0.59010   0.09010   0.00000  Uiso   1.00
O521   O     0.93210   0.43210   0.56790   0.00000  Uiso   1.00
H522   H     0.90990   0.40990   0.59010   0.00000  Uiso   1.00
O524   O     0.43210   0.93210   0.56790   0.00000  Uiso   1.00
H525   H     0.40990   0.90990   0.59010   0.00000  Uiso   1.00
O527   O     0.43210   0.43210   0.06790   0.00000  Uiso   1.00
H528   H     0.40990   0.40990   0.09010   0.00000  Uiso   1.00
O533   O     0.93210   0.56790   0.43210   0.00000  Uiso   1.00
H534   H     0.90990   0.59010   0.40990   0.00000  Uiso   1.00
O536   O     0.43210   0.06790   0.43210   0.00000  Uiso   1.00
H537   H     0.40990   0.09010   0.40990   0.00000  Uiso   1.00
O539   O     0.43210   0.56790   0.93210   0.00000  Uiso   1.00
H540   H     0.40990   0.59010   0.90990   0.00000  Uiso   1.00
O545   O     0.06790   0.43210   0.43210   0.00000  Uiso   1.00
H546   H     0.09010   0.40990   0.40990   0.00000  Uiso   1.00
O548   O     0.56790   0.93210   0.43210   0.00000  Uiso   1.00
H549   H     0.59010   0.90990   0.40990   0.00000  Uiso   1.00
O551   O     0.56790   0.43210   0.93210   0.00000  Uiso   1.00
H552   H     0.59010   0.40990   0.90990   0.00000  Uiso   1.00
O554   O     0.06790   0.06790   0.93210   0.00000  Uiso   1.00
H555   H     0.09010   0.09010   0.90990   0.00000  Uiso   1.00
O557   O     0.06790   0.56790   0.43210   0.00000  Uiso   1.00
H558   H     0.09010   0.59010   0.40990   0.00000  Uiso   1.00
O560   O     0.56790   0.06790   0.43210   0.00000  Uiso   1.00
H561   H     0.59010   0.09010   0.40990   0.00000  Uiso   1.00
O563   O     0.56790   0.56790   0.93210   0.00000  Uiso   1.00
H564   H     0.59010   0.59010   0.90990   0.00000  Uiso   1.00
O572   O     0.43210   0.93210   0.43210   0.00000  Uiso   1.00
H573   H     0.40990   0.90990   0.40990   0.00000  Uiso   1.00
O575   O     0.43210   0.43210   0.93210   0.00000  Uiso   1.00
H576   H     0.40990   0.40990   0.90990   0.00000  Uiso   1.00
O578   O     0.06790   0.93210   0.06790   0.00000  Uiso   1.00
H579   H     0.09010   0.90990   0.09010   0.00000  Uiso   1.00
O581   O     0.06790   0.43210   0.56790   0.00000  Uiso   1.00
H582   H     0.09010   0.40990   0.59010   0.00000  Uiso   1.00
O584   O     0.56790   0.93210   0.56790   0.00000  Uiso   1.00
H585   H     0.59010   0.90990   0.59010   0.00000  Uiso   1.00
O587   O     0.56790   0.43210   0.06790   0.00000  Uiso   1.00
H588   H     0.59010   0.40990   0.09010   0.00000  Uiso   1.00
O590   O     0.93210   0.06790   0.06790   0.00000  Uiso   1.00
H591   H     0.90990   0.09010   0.09010   0.00000  Uiso   1.00
O596   O     0.43210   0.06790   0.56790   0.00000  Uiso   1.00
H597   H     0.40990   0.09010   0.59010   0.00000  Uiso   1.00
O599   O     0.43210   0.56790   0.06790   0.00000  Uiso   1.00
H600   H     0.40990   0.59010   0.09010   0.00000  Uiso   1.00
O518   O     0.93210  -0.06790   0.06790   0.00000  Uiso   1.00
H519   H     0.90990  -0.09010   0.09010   0.00000  Uiso   1.00
O530   O     0.93210   0.06790  -0.06790   0.00000  Uiso   1.00
H531   H     0.90990   0.09010  -0.09010   0.00000  Uiso   1.00
O542   O     0.06790  -0.06790  -0.06790   0.00000  Uiso   1.00
H543   H     0.09010  -0.09010  -0.09010   0.00000  Uiso   1.00
O566   O     0.93210  -0.06790  -0.06790   0.00000  Uiso   1.00
H567   H     0.90990  -0.09010  -0.09010   0.00000  Uiso   1.00
O569   O    -0.06790   0.43210   0.43210   0.00000  Uiso   1.00
O593   O    -0.06790   0.56790   0.56790   0.00000  Uiso   1.00
H570   H     0.90990   0.40990   0.40990   0.00000  Uiso   1.00
H594   H     0.90990   0.59010   0.59010   0.00000  Uiso   1.00
loop_
_geom_bond_atom_site_label_1
_geom_bond_atom_site_label_2
_geom_bond_distance
_geom_bond_site_symmetry_2
_ccdc_geom_bond_type
Zr1    O25     2.216   1_545 S
Zr1    O73     2.216   .     S
Zr1    O281    2.216   .     S
Zr1    O329    2.216   1_554 S
Zr1    O506    2.262   .     S
Zr1    O554    2.262   1_554 S
Zr1    O578    2.262   1_545 S
Zr1    O542    2.262   .     S
Zr2    O29     2.216   .     S
Zr2    O77     2.216   .     S
Zr2    O285    2.216   .     S
Zr2    O333    2.216   .     S
Zr2    O509    2.262   .     S
Zr2    O545    2.262   .     S
Zr2    O557    2.262   .     S
Zr2    O581    2.262   .     S
Zr3    O33     2.216   1_545 S
Zr3    O81     2.216   .     S
Zr3    O289    2.216   .     S
Zr3    O337    2.216   .     S
Zr3    O512    2.262   .     S
Zr3    O548    2.262   1_545 S
Zr3    O560    2.262   .     S
Zr3    O584    2.262   1_545 S
Zr4    O37     2.216   .     S
Zr4    O85     2.216   .     S
Zr4    O293    2.216   .     S
Zr4    O341    2.216   1_554 S
Zr4    O515    2.262   .     S
Zr4    O551    2.262   1_554 S
Zr4    O563    2.262   1_554 S
Zr4    O587    2.262   .     S
Zr5    O41     2.216   .     S
Zr5    O57     2.216   1_545 S
Zr5    O297    2.216   1_554 S
Zr5    O313    2.216   .     S
Zr5    O590    2.262   .     S
Zr5    O518    2.262   .     S
Zr5    O530    2.262   .     S
Zr5    O566    2.262   .     S
Zr6    O45     2.216   .     S
Zr6    O61     2.216   .     S
Zr6    O301    2.216   .     S
Zr6    O317    2.216   .     S
Zr6    O521    2.262   .     S
Zr6    O533    2.262   .     S
Zr6    O569    2.262   1_655 S
Zr6    O593    2.262   1_655 S
Zr7    O49     2.216   .     S
Zr7    O65     2.216   1_545 S
Zr7    O305    2.216   .     S
Zr7    O321    2.216   .     S
Zr7    O524    2.262   1_545 S
Zr7    O536    2.262   .     S
Zr7    O572    2.262   1_545 S
Zr7    O596    2.262   .     S
Zr8    O53     2.216   .     S
Zr8    O69     2.216   .     S
Zr8    O309    2.216   1_554 S
Zr8    O325    2.216   .     S
Zr8    O527    2.262   .     S
Zr8    O539    2.262   1_554 S
Zr8    O575    2.262   1_554 S
Zr8    O599    2.262   .     S
Zr9    O89     2.216   1_554 S
Zr9    O137    2.216   .     S
Zr9    O217    2.216   1_455 S
Zr9    O265    2.216   .     S
Zr9    O506    2.262   .     S
Zr9    O554    2.262   1_554 S
Zr9    O590    2.262   1_455 S
Zr9    O530    2.262   1_455 S
Zr10   O93     2.216   .     S
Zr10   O141    2.216   .     S
Zr10   O221    2.216   1_455 S
Zr10   O269    2.216   .     S
Zr10   O509    2.262   .     S
Zr10   O533    2.262   1_455 S
Zr10   O557    2.262   .     S
Zr10   O593    2.262   .     S
Zr11   O97     2.216   .     S
Zr11   O145    2.216   .     S
Zr11   O225    2.216   .     S
Zr11   O273    2.216   .     S
Zr11   O512    2.262   .     S
Zr11   O536    2.262   .     S
Zr11   O560    2.262   .     S
Zr11   O596    2.262   .     S
Zr12   O101    2.216   1_554 S
Zr12   O149    2.216   .     S
Zr12   O229    2.216   .     S
Zr12   O277    2.216   .     S
Zr12   O515    2.262   .     S
Zr12   O539    2.262   1_554 S
Zr12   O563    2.262   1_554 S
Zr12   O599    2.262   .     S
Zr13   O105    2.216   .     S
Zr13   O121    2.216   1_554 S
Zr13   O233    2.216   .     S
Zr13   O249    2.216   1_455 S
Zr13   O578    2.262   .     S
Zr13   O518    2.262   1_465 S
Zr13   O542    2.262   1_565 S
Zr13   O566    2.262   1_465 S
Zr14   O109    2.216   .     S
Zr14   O125    2.216   .     S
Zr14   O237    2.216   .     S
Zr14   O253    2.216   1_455 S
Zr14   O521    2.262   1_455 S
Zr14   O545    2.262   .     S
Zr14   O581    2.262   .     S
Zr14   O569    2.262   .     S
Zr15   O113    2.216   .     S
Zr15   O129    2.216   .     S
Zr15   O241    2.216   .     S
Zr15   O257    2.216   .     S
Zr15   O524    2.262   .     S
Zr15   O548    2.262   .     S
Zr15   O572    2.262   .     S
Zr15   O584    2.262   .     S
Zr16   O117    2.216   .     S
Zr16   O133    2.216   1_554 S
Zr16   O245    2.216   .     S
Zr16   O261    2.216   .     S
Zr16   O527    2.262   .     S
Zr16   O551    2.262   1_554 S
Zr16   O575    2.262   1_554 S
Zr16   O587    2.262   .     S
Zr17   O153    2.216   1_455 S
Zr17   O201    2.216   .     S
Zr17   O361    2.216   .     S
Zr17   O377    2.216   1_545 S
Zr17   O506    2.262   .     S
Zr17   O578    2.262   1_545 S
Zr17   O590    2.262   1_455 S
Zr17   O518    2.262   1_455 S
Zr18   O157    2.216   1_455 S
Zr18   O205    2.216   .     S
Zr18   O365    2.216   .     S
Zr18   O381    2.216   .     S
Zr18   O509    2.262   .     S
Zr18   O521    2.262   1_455 S
Zr18   O581    2.262   .     S
Zr18   O593    2.262   .     S
Zr19   O161    2.216   .     S
Zr19   O209    2.216   .     S
Zr19   O369    2.216   .     S
Zr19   O385    2.216   1_545 S
Zr19   O512    2.262   .     S
Zr19   O524    2.262   1_545 S
Zr19   O584    2.262   1_545 S
Zr19   O596    2.262   .     S
Zr20   O165    2.216   .     S
Zr20   O213    2.216   .     S
Zr20   O373    2.216   .     S
Zr20   O389    2.216   .     S
Zr20   O515    2.262   .     S
Zr20   O527    2.262   .     S
Zr20   O587    2.262   .     S
Zr20   O599    2.262   .     S
Zr21   O169    2.216   .     S
Zr21   O185    2.216   1_455 S
Zr21   O345    2.216   1_545 S
Zr21   O393    2.216   .     S
Zr21   O554    2.262   .     S
Zr21   O530    2.262   1_456 S
Zr21   O542    2.262   1_556 S
Zr21   O566    2.262   1_456 S
Zr22   O173    2.216   .     S
Zr22   O189    2.216   1_455 S
Zr22   O349    2.216   .     S
Zr22   O397    2.216   .     S
Zr22   O533    2.262   1_455 S
Zr22   O545    2.262   .     S
Zr22   O557    2.262   .     S
Zr22   O569    2.262   .     S
Zr23   O177    2.216   .     S
Zr23   O193    2.216   .     S
Zr23   O353    2.216   1_545 S
Zr23   O401    2.216   .     S
Zr23   O536    2.262   .     S
Zr23   O548    2.262   1_545 S
Zr23   O560    2.262   .     S
Zr23   O572    2.262   1_545 S
Zr24   O181    2.216   .     S
Zr24   O197    2.216   .     S
Zr24   O357    2.216   .     S
Zr24   O405    2.216   .     S
Zr24   O539    2.262   .     S
Zr24   O551    2.262   .     S
Zr24   O563    2.262   .     S
Zr24   O575    2.262   .     S
O25    Zr1     2.216   1_565 S
O25    C409    1.310   .     S
C26    H27     0.949   .     S
C26    C230    1.391   .     D
C26    C410    1.381   .     S
O29    C411    1.310   .     S
C30    H31     0.949   .     S
C30    C226    1.391   .     D
C30    C412    1.381   .     S
O33    Zr3     2.216   1_565 S
O33    C413    1.310   .     D
C34    H35     0.949   .     S
C34    C222    1.391   .     S
C34    C414    1.381   .     D
O37    C415    1.310   .     D
C38    H39     0.949   .     S
C38    C218    1.391   .     S
C38    C416    1.381   .     D
O41    C417    1.310   .     D
C42    H43     0.949   .     S
C42    C246    1.391   .     D
C42    C418    1.381   .     S
O45    C419    1.310   .     S
C46    H47     0.949   .     S
C46    C242    1.391   .     D
C46    C420    1.381   .     S
O49    C421    1.310   .     D
C50    H51     0.949   .     S
C50    C238    1.391   .     S
C50    C422    1.381   .     D
O53    C423    1.310   .     S
C54    H55     0.949   .     S
C54    C234    1.391   .     S
C54    C424    1.381   .     D
O57    Zr5     2.216   1_565 S
O57    C425    1.310   .     D
C58    H59     0.949   .     S
C58    C278    1.391   .     D
C58    C426    1.381   .     S
O61    C427    1.310   .     D
C62    H63     0.949   .     S
C62    C274    1.391   .     D
C62    C428    1.381   .     S
O65    Zr7     2.216   1_565 S
O65    C429    1.310   .     D
C66    H67     0.949   .     S
C66    C270    1.391   .     D
C66    C430    1.381   .     S
O69    C431    1.310   .     D
C70    H71     0.949   .     S
C70    C266    1.391   .     D
C70    C432    1.381   .     S
O73    C433    1.310   .     D
C74    H75     0.949   .     S
C74    C262    1.391   .     S
C74    C434    1.381   .     D
O77    C435    1.310   .     S
C78    H79     0.949   .     S
C78    C258    1.391   .     S
C78    C436    1.381   .     D
O81    C437    1.310   .     D
C82    H83     0.949   .     S
C82    C254    1.391   .     S
C82    C438    1.381   .     D
O85    C439    1.310   .     S
C86    H87     0.949   .     S
C86    C250    1.391   .     S
C86    C440    1.381   .     D
O89    Zr9     2.216   1_556 S
O89    C441    1.310   .     S
C90    H91     0.949   .     S
C90    C382    1.391   .     D
C90    C442    1.381   .     S
O93    C443    1.310   .     D
C94    H95     0.949   .     S
C94    C378    1.391   .     S
C94    C444    1.381   .     D
O97    C445    1.310   .     S
C98    H99     0.949   .     S
C98    C390    1.391   .     D
C98    C446    1.381   .     S
O101   Zr12    2.216   1_556 S
O101   C447    1.310   .     D
C102   H103    0.949   .     S
C102   C386    1.391   .     S
C102   C448    1.381   .     D
O105   C449    1.310   .     D
C106   H107    0.949   .     S
C106   C398    1.391   .     D
C106   C450    1.381   .     S
O109   C451    1.310   .     S
C110   H111    0.949   .     S
C110   C394    1.391   .     S
C110   C452    1.381   .     D
O113   C453    1.310   .     S
C114   H115    0.949   .     S
C114   C406    1.391   .     D
C114   C454    1.381   .     S
O117   C455    1.310   .     D
C118   H119    0.949   .     S
C118   C402    1.391   .     S
C118   C456    1.381   .     D
O121   Zr13    2.216   1_556 S
O121   C457    1.310   .     D
C122   H123    0.949   .     S
C122   C366    1.391   .     D
C122   C458    1.381   .     S
O125   C459    1.310   .     D
C126   H127    0.949   .     S
C126   C362    1.391   .     D
C126   C460    1.381   .     S
O129   C461    1.310   .     D
C130   H131    0.949   .     S
C130   C374    1.391   .     D
C130   C462    1.381   .     S
O133   Zr16    2.216   1_556 S
O133   C463    1.310   .     D
C134   H135    0.949   .     S
C134   C370    1.391   .     D
C134   C464    1.381   .     S
O137   C465    1.310   .     D
C138   H139    0.949   .     S
C138   C350    1.391   .     S
C138   C466    1.381   .     D
O141   C467    1.310   .     S
C142   H143    0.949   .     S
C142   C346    1.391   .     S
C142   C468    1.381   .     D
O145   C469    1.310   .     S
C146   H147    0.949   .     S
C146   C358    1.391   .     S
C146   C470    1.381   .     D
O149   C471    1.310   .     D
C150   H151    0.949   .     S
C150   C354    1.391   .     S
C150   C472    1.381   .     D
O153   Zr17    2.216   1_655 S
O153   C473    1.310   .     S
C154   H155    0.949   .     S
C154   C338    1.391   .     D
C154   C474    1.381   .     S
O157   Zr18    2.216   1_655 S
O157   C475    1.310   .     D
C158   H159    0.949   .     S
C158   C342    1.391   .     S
C158   C476    1.381   .     D
O161   C477    1.310   .     D
C162   H163    0.949   .     S
C162   C330    1.391   .     S
C162   C478    1.381   .     D
O165   C479    1.310   .     S
C166   H167    0.949   .     S
C166   C334    1.391   .     D
C166   C480    1.381   .     S
O169   C481    1.310   .     D
C170   H171    0.949   .     S
C170   C322    1.391   .     D
C170   C482    1.381   .     S
O173   C483    1.310   .     D
C174   H175    0.949   .     S
C174   C326    1.391   .     S
C174   C484    1.381   .     D
O177   C485    1.310   .     S
C178   H179    0.949   .     S
C178   C314    1.391   .     S
C178   C486    1.381   .     D
O181   C487    1.310   .     S
C182   H183    0.949   .     S
C182   C318    1.391   .     D
C182   C488    1.381   .     S
O185   Zr21    2.216   1_655 S
O185   C489    1.310   .     D
C186   H187    0.949   .     S
C186   C290    1.391   .     D
C186   C490    1.381   .     S
O189   Zr22    2.216   1_655 S
O189   C491    1.310   .     D
C190   H191    0.949   .     S
C190   C294    1.391   .     D
C190   C492    1.381   .     S
O193   C493    1.310   .     D
C194   H195    0.949   .     S
C194   C282    1.391   .     D
C194   C494    1.381   .     S
O197   C495    1.310   .     D
C198   H199    0.949   .     S
C198   C286    1.391   .     D
C198   C496    1.381   .     S
O201   C497    1.310   .     S
C202   H203    0.949   .     S
C202   C306    1.391   .     S
C202   C498    1.381   .     D
O205   C499    1.310   .     D
C206   H207    0.949   .     S
C206   C310    1.391   .     S
C206   C500    1.381   .     D
O209   C501    1.310   .     D
C210   H211    0.949   .     S
C210   C298    1.391   .     S
C210   C502    1.381   .     D
O213   C503    1.310   .     S
C214   H215    0.949   .     S
C214   C302    1.391   .     S
C214   C504    1.381   .     D
O217   Zr9     2.216   1_655 S
O217   C417    1.310   .     S
C218   H219    0.949   .     S
C218   C418    1.381   .     D
O221   Zr10    2.216   1_655 S
O221   C419    1.310   .     D
C222   H223    0.949   .     S
C222   C420    1.381   .     D
O225   C421    1.310   .     S
C226   H227    0.949   .     S
C226   C422    1.381   .     S
O229   C423    1.310   .     D
C230   H231    0.949   .     S
C230   C424    1.381   .     S
O233   C409    1.310   .     D
C234   H235    0.949   .     S
C234   C410    1.381   .     D
O237   C411    1.310   .     D
C238   H239    0.949   .     S
C238   C412    1.381   .     D
O241   C413    1.310   .     S
C242   H243    0.949   .     S
C242   C414    1.381   .     S
O245   C415    1.310   .     S
C246   H247    0.949   .     S
C246   C416    1.381   .     S
O249   Zr13    2.216   1_655 S
O249   C425    1.310   .     S
C250   H251    0.949   .     S
C250   C426    1.381   .     D
O253   Zr14    2.216   1_655 S
O253   C427    1.310   .     S
C254   H255    0.949   .     S
C254   C428    1.381   .     D
O257   C429    1.310   .     S
C258   H259    0.949   .     S
C258   C430    1.381   .     D
O261   C431    1.310   .     S
C262   H263    0.949   .     S
C262   C432    1.381   .     D
O265   C433    1.310   .     S
C266   H267    0.949   .     S
C266   C434    1.381   .     S
O269   C435    1.310   .     D
C270   H271    0.949   .     S
C270   C436    1.381   .     S
O273   C437    1.310   .     S
C274   H275    0.949   .     S
C274   C438    1.381   .     S
O277   C439    1.310   .     D
C278   H279    0.949   .     S
C278   C440    1.381   .     S
O281   C497    1.310   .     D
C282   H283    0.949   .     S
C282   C498    1.381   .     S
O285   C499    1.310   .     S
C286   H287    0.949   .     S
C286   C500    1.381   .     S
O289   C501    1.310   .     S
C290   H291    0.949   .     S
C290   C502    1.381   .     S
O293   C503    1.310   .     D
C294   H295    0.949   .     S
C294   C504    1.381   .     S
O297   Zr5     2.216   1_556 S
O297   C489    1.310   .     S
C298   H299    0.949   .     S
C298   C490    1.381   .     D
O301   C491    1.310   .     S
C302   H303    0.949   .     S
C302   C492    1.381   .     D
O305   C493    1.310   .     S
C306   H307    0.949   .     S
C306   C494    1.381   .     D
O309   Zr8     2.216   1_556 S
O309   C495    1.310   .     S
C310   H311    0.949   .     S
C310   C496    1.381   .     D
O313   C473    1.310   .     D
C314   H315    0.949   .     S
C314   C474    1.381   .     D
O317   C475    1.310   .     S
C318   H319    0.949   .     S
C318   C476    1.381   .     S
O321   C477    1.310   .     S
C322   H323    0.949   .     S
C322   C478    1.381   .     S
O325   C479    1.310   .     D
C326   H327    0.949   .     S
C326   C480    1.381   .     D
O329   Zr1     2.216   1_556 S
O329   C481    1.310   .     S
C330   H331    0.949   .     S
C330   C482    1.381   .     D
O333   C483    1.310   .     S
C334   H335    0.949   .     S
C334   C484    1.381   .     S
O337   C485    1.310   .     D
C338   H339    0.949   .     S
C338   C486    1.381   .     S
O341   Zr4     2.216   1_556 S
O341   C487    1.310   .     D
C342   H343    0.949   .     S
C342   C488    1.381   .     D
O345   Zr21    2.216   1_565 S
O345   C457    1.310   .     S
C346   H347    0.949   .     S
C346   C458    1.381   .     D
O349   C459    1.310   .     S
C350   H351    0.949   .     S
C350   C460    1.381   .     D
O353   Zr23    2.216   1_565 S
O353   C461    1.310   .     S
C354   H355    0.949   .     S
C354   C462    1.381   .     D
O357   C463    1.310   .     S
C358   H359    0.949   .     S
C358   C464    1.381   .     D
O361   C465    1.310   .     S
C362   H363    0.949   .     S
C362   C466    1.381   .     S
O365   C467    1.310   .     D
C366   H367    0.949   .     S
C366   C468    1.381   .     S
O369   C469    1.310   .     D
C370   H371    0.949   .     S
C370   C470    1.381   .     S
O373   C471    1.310   .     S
C374   H375    0.949   .     S
C374   C472    1.381   .     S
O377   Zr17    2.216   1_565 S
O377   C449    1.310   .     S
C378   H379    0.949   .     S
C378   C450    1.381   .     D
O381   C451    1.310   .     D
C382   H383    0.949   .     S
C382   C452    1.381   .     S
O385   Zr19    2.216   1_565 S
O385   C453    1.310   .     D
C386   H387    0.949   .     S
C386   C454    1.381   .     D
O389   C455    1.310   .     S
C390   H391    0.949   .     S
C390   C456    1.381   .     S
O393   C441    1.310   .     D
C394   H395    0.949   .     S
C394   C442    1.381   .     D
O397   C443    1.310   .     S
C398   H399    0.949   .     S
C398   C444    1.381   .     S
O401   C445    1.310   .     D
C402   H403    0.949   .     S
C402   C446    1.381   .     D
O405   C447    1.310   .     S
C406   H407    0.949   .     S
C406   C448    1.381   .     S
C409   C410    1.502   .     S
C411   C412    1.502   .     S
C413   C414    1.502   .     S
C415   C416    1.502   .     S
C417   C418    1.502   .     S
C419   C420    1.502   .     S
C421   C422    1.502   .     S
C423   C424    1.502   .     S
C425   C426    1.502   .     S
C427   C428    1.502   .     S
C429   C430    1.502   .     S
C431   C432    1.502   .     S
C433   C434    1.502   .     S
C435   C436    1.502   .     S
C437   C438    1.502   .     S
C439   C440    1.502   .     S
C441   C442    1.502   .     S
C443   C444    1.502   .     S
C445   C446    1.502   .     S
C447   C448    1.502   .     S
C449   C450    1.502   .     S
C451   C452    1.502   .     S
C453   C454    1.502   .     S
C455   C456    1.502   .     S
C457   C458    1.502   .     S
C459   C460    1.502   .     S
C461   C462    1.502   .     S
C463   C464    1.502   .     S
C465   C466    1.502   .     S
C467   C468    1.502   .     S
C469   C470    1.502   .     S
C471   C472    1.502   .     S
C473   C474    1.502   .     S
C475   C476    1.502   .     S
C477   C478    1.502   .     S
C479   C480    1.502   .     S
C481   C482    1.502   .     S
C483   C484    1.502   .     S
C485   C486    1.502   .     S
C487   C488    1.502   .     S
C489   C490    1.502   .     S
C491   C492    1.502   .     S
C493   C494    1.502   .     S
C495   C496    1.502   .     S
C497   C498    1.502   .     S
C499   C500    1.502   .     S
C501   C502    1.502   .     S
C503   C504    1.502   .     S
O506   H507    0.798   .     S
O509   H510    0.798   .     S
O512   H513    0.798   .     S
O515   H516    0.798   .     S
O521   Zr14    2.262   1_655 S
O521   Zr18    2.262   1_655 S
O521   H522    0.798   .     S
O524   Zr7     2.262   1_565 S
O524   Zr19    2.262   1_565 S
O524   H525    0.798   .     S
O527   H528    0.798   .     S
O533   Zr22    2.262   1_655 S
O533   Zr10    2.262   1_655 S
O533   H534    0.798   .     S
O536   H537    0.798   .     S
O539   Zr8     2.262   1_556 S
O539   Zr12    2.262   1_556 S
O539   H540    0.798   .     S
O545   H546    0.798   .     S
O548   Zr23    2.262   1_565 S
O548   Zr3     2.262   1_565 S
O548   H549    0.798   .     S
O551   Zr4     2.262   1_556 S
O551   Zr16    2.262   1_556 S
O551   H552    0.798   .     S
O554   Zr1     2.262   1_556 S
O554   Zr9     2.262   1_556 S
O554   H555    0.798   .     S
O557   H558    0.798   .     S
O560   H561    0.798   .     S
O563   Zr4     2.262   1_556 S
O563   Zr12    2.262   1_556 S
O563   H564    0.798   .     S
O572   Zr23    2.262   1_565 S
O572   Zr7     2.262   1_565 S
O572   H573    0.798   .     S
O575   Zr8     2.262   1_556 S
O575   Zr16    2.262   1_556 S
O575   H576    0.798   .     S
O578   Zr1     2.262   1_565 S
O578   Zr17    2.262   1_565 S
O578   H579    0.798   .     S
O581   H582    0.798   .     S
O584   Zr3     2.262   1_565 S
O584   Zr19    2.262   1_565 S
O584   H585    0.798   .     S
O587   H588    0.798   .     S
O590   Zr9     2.262   1_655 S
O590   Zr17    2.262   1_655 S
O590   H591    0.798   .     S
O596   H597    0.798   .     S
O599   H600    0.798   .     S
O518   Zr13    2.262   1_645 S
O518   Zr17    2.262   1_655 S
O518   H519    0.798   .     S
O530   Zr21    2.262   1_654 S
O530   Zr9     2.262   1_655 S
O530   H531    0.798   .     S
O542   Zr21    2.262   1_554 S
O542   Zr13    2.262   1_545 S
O542   H543    0.798   .     S
O566   Zr21    2.262   1_654 S
O566   Zr13    2.262   1_645 S
O566   H567    0.798   .     S
O569   Zr6     2.262   1_455 S
O569   H570    0.798   1_455 S
O593   Zr6     2.262   1_455 S
O593   H594    0.798   1_455 S
H570   O569    0.798   1_655 S
H594   O593    0.798   1_655 S
