
#######################################################################
#
#                 Cambridge Crystallographic Data Centre
#                                CCDC 
#
#######################################################################
#
# If this CIF has been generated from an entry in the Cambridge 
# Structural Database, then it will include bibliographic, chemical, 
# crystal, experimental, refinement or atomic coordinate data resulting 
# from the CCDC's data processing and validation procedures.
#
#######################################################################

data_UFOSEQ.Zr_MOFs_Nov2018+3updates
_symmetry_cell_setting           triclinic
_symmetry_space_group_name_H-M   'P 1'
_symmetry_Int_Tables_number      1
_space_group_name_Hall           'P 1'
loop_
_symmetry_equiv_pos_site_id
_symmetry_equiv_pos_as_xyz
1 x,y,z
_cell_length_a                   20.7549
_cell_length_b                   20.7549
_cell_length_c                   20.7549
_cell_angle_alpha                90.0000
_cell_angle_beta                 90.0000
_cell_angle_gamma                90.0000
_cell_volume                     8940.5
loop_
_atom_site_label
_atom_site_type_symbol
_atom_site_fract_x
_atom_site_fract_y
_atom_site_fract_z
_atom_site_U_iso_or_equiv
_atom_site_thermal_displace_type
Zr1 Zr 0.11961 0.00000 0.00000 0.0000 Uiso
Zr2 Zr 0.11961 0.50000 0.50000 0.0000 Uiso
Zr3 Zr 0.61961 0.00000 0.50000 0.0000 Uiso
Zr4 Zr 0.61961 0.50000 0.00000 0.0000 Uiso
Zr5 Zr 0.88039 0.00000 0.00000 0.0000 Uiso
Zr6 Zr 0.88039 0.50000 0.50000 0.0000 Uiso
Zr7 Zr 0.38039 0.00000 0.50000 0.0000 Uiso
Zr8 Zr 0.38039 0.50000 0.00000 0.0000 Uiso
Zr9 Zr 0.00000 0.11961 0.00000 0.0000 Uiso
Zr10 Zr 0.00000 0.61961 0.50000 0.0000 Uiso
Zr11 Zr 0.50000 0.11961 0.50000 0.0000 Uiso
Zr12 Zr 0.50000 0.61961 0.00000 0.0000 Uiso
Zr13 Zr 0.00000 0.88039 0.00000 0.0000 Uiso
Zr14 Zr 0.00000 0.38039 0.50000 0.0000 Uiso
Zr15 Zr 0.50000 0.88039 0.50000 0.0000 Uiso
Zr16 Zr 0.50000 0.38039 0.00000 0.0000 Uiso
Zr17 Zr 0.00000 0.00000 0.11961 0.0000 Uiso
Zr18 Zr 0.00000 0.50000 0.61961 0.0000 Uiso
Zr19 Zr 0.50000 0.00000 0.61961 0.0000 Uiso
Zr20 Zr 0.50000 0.50000 0.11961 0.0000 Uiso
Zr21 Zr 0.00000 0.00000 0.88039 0.0000 Uiso
Zr22 Zr 0.00000 0.50000 0.38039 0.0000 Uiso
Zr23 Zr 0.50000 0.00000 0.38039 0.0000 Uiso
Zr24 Zr 0.50000 0.50000 0.88039 0.0000 Uiso
O25 O 0.17345 0.90810 0.00000 0.0000 Uiso
C26 C 0.26710 0.81460 0.00000 0.0000 Uiso
H27 H 0.27885 0.85889 0.00000 0.0000 Uiso
O29 O 0.17345 0.40810 0.50000 0.0000 Uiso
C30 C 0.26710 0.31460 0.50000 0.0000 Uiso
H31 H 0.27885 0.35889 0.50000 0.0000 Uiso
O33 O 0.67345 0.90810 0.50000 0.0000 Uiso
C34 C 0.76710 0.81460 0.50000 0.0000 Uiso
H35 H 0.77885 0.85889 0.50000 0.0000 Uiso
O37 O 0.67345 0.40810 0.00000 0.0000 Uiso
C38 C 0.76710 0.31460 0.00000 0.0000 Uiso
H39 H 0.77885 0.35889 0.00000 0.0000 Uiso
O41 O 0.82655 0.09190 0.00000 0.0000 Uiso
C42 C 0.73290 0.18540 0.00000 0.0000 Uiso
H43 H 0.72115 0.14111 0.00000 0.0000 Uiso
O45 O 0.82655 0.59190 0.50000 0.0000 Uiso
C46 C 0.73290 0.68540 0.50000 0.0000 Uiso
H47 H 0.72115 0.64111 0.50000 0.0000 Uiso
O49 O 0.32655 0.09190 0.50000 0.0000 Uiso
C50 C 0.23290 0.18540 0.50000 0.0000 Uiso
H51 H 0.22115 0.14111 0.50000 0.0000 Uiso
O53 O 0.32655 0.59190 0.00000 0.0000 Uiso
C54 C 0.23290 0.68540 0.00000 0.0000 Uiso
H55 H 0.22115 0.64111 0.00000 0.0000 Uiso
O57 O 0.82655 0.90810 0.00000 0.0000 Uiso
C58 C 0.73290 0.81460 0.00000 0.0000 Uiso
H59 H 0.72115 0.85889 0.00000 0.0000 Uiso
O61 O 0.82655 0.40810 0.50000 0.0000 Uiso
C62 C 0.73290 0.31460 0.50000 0.0000 Uiso
H63 H 0.72115 0.35889 0.50000 0.0000 Uiso
O65 O 0.32655 0.90810 0.50000 0.0000 Uiso
C66 C 0.23290 0.81460 0.50000 0.0000 Uiso
H67 H 0.22115 0.85889 0.50000 0.0000 Uiso
O69 O 0.32655 0.40810 0.00000 0.0000 Uiso
C70 C 0.23290 0.31460 0.00000 0.0000 Uiso
H71 H 0.22115 0.35889 0.00000 0.0000 Uiso
O73 O 0.17345 0.09190 0.00000 0.0000 Uiso
C74 C 0.26710 0.18540 0.00000 0.0000 Uiso
H75 H 0.27885 0.14111 0.00000 0.0000 Uiso
O77 O 0.17345 0.59190 0.50000 0.0000 Uiso
C78 C 0.26710 0.68540 0.50000 0.0000 Uiso
H79 H 0.27885 0.64111 0.50000 0.0000 Uiso
O81 O 0.67345 0.09190 0.50000 0.0000 Uiso
C82 C 0.76710 0.18540 0.50000 0.0000 Uiso
H83 H 0.77885 0.14111 0.50000 0.0000 Uiso
O85 O 0.67345 0.59190 0.00000 0.0000 Uiso
C86 C 0.76710 0.68540 0.00000 0.0000 Uiso
H87 H 0.77885 0.64111 0.00000 0.0000 Uiso
O89 O 0.00000 0.17345 0.90810 0.0000 Uiso
C90 C 0.00000 0.26710 0.81460 0.0000 Uiso
H91 H 0.00000 0.27885 0.85889 0.0000 Uiso
O93 O 0.00000 0.67345 0.40810 0.0000 Uiso
C94 C 0.00000 0.76710 0.31460 0.0000 Uiso
H95 H 0.00000 0.77885 0.35889 0.0000 Uiso
O97 O 0.50000 0.17345 0.40810 0.0000 Uiso
C98 C 0.50000 0.26710 0.31460 0.0000 Uiso
H99 H 0.50000 0.27885 0.35889 0.0000 Uiso
O101 O 0.50000 0.67345 0.90810 0.0000 Uiso
C102 C 0.50000 0.76710 0.81460 0.0000 Uiso
H103 H 0.50000 0.77885 0.85889 0.0000 Uiso
O105 O 0.00000 0.82655 0.09190 0.0000 Uiso
C106 C 0.00000 0.73290 0.18540 0.0000 Uiso
H107 H 0.00000 0.72115 0.14111 0.0000 Uiso
O109 O 0.00000 0.32655 0.59190 0.0000 Uiso
C110 C 0.00000 0.23290 0.68540 0.0000 Uiso
H111 H 0.00000 0.22115 0.64111 0.0000 Uiso
O113 O 0.50000 0.82655 0.59190 0.0000 Uiso
C114 C 0.50000 0.73290 0.68540 0.0000 Uiso
H115 H 0.50000 0.72115 0.64111 0.0000 Uiso
O117 O 0.50000 0.32655 0.09190 0.0000 Uiso
C118 C 0.50000 0.23290 0.18540 0.0000 Uiso
H119 H 0.50000 0.22115 0.14111 0.0000 Uiso
O121 O 0.00000 0.82655 0.90810 0.0000 Uiso
C122 C 0.00000 0.73290 0.81460 0.0000 Uiso
H123 H 0.00000 0.72115 0.85889 0.0000 Uiso
O125 O 0.00000 0.32655 0.40810 0.0000 Uiso
C126 C 0.00000 0.23290 0.31460 0.0000 Uiso
H127 H 0.00000 0.22115 0.35889 0.0000 Uiso
O129 O 0.50000 0.82655 0.40810 0.0000 Uiso
C130 C 0.50000 0.73290 0.31460 0.0000 Uiso
H131 H 0.50000 0.72115 0.35889 0.0000 Uiso
O133 O 0.50000 0.32655 0.90810 0.0000 Uiso
C134 C 0.50000 0.23290 0.81460 0.0000 Uiso
H135 H 0.50000 0.22115 0.85889 0.0000 Uiso
O137 O 0.00000 0.17345 0.09190 0.0000 Uiso
C138 C 0.00000 0.26710 0.18540 0.0000 Uiso
H139 H 0.00000 0.27885 0.14111 0.0000 Uiso
O141 O 0.00000 0.67345 0.59190 0.0000 Uiso
C142 C 0.00000 0.76710 0.68540 0.0000 Uiso
H143 H 0.00000 0.77885 0.64111 0.0000 Uiso
O145 O 0.50000 0.17345 0.59190 0.0000 Uiso
C146 C 0.50000 0.26710 0.68540 0.0000 Uiso
H147 H 0.50000 0.27885 0.64111 0.0000 Uiso
O149 O 0.50000 0.67345 0.09190 0.0000 Uiso
C150 C 0.50000 0.76710 0.18540 0.0000 Uiso
H151 H 0.50000 0.77885 0.14111 0.0000 Uiso
O153 O 0.90810 0.00000 0.17345 0.0000 Uiso
C154 C 0.81460 0.00000 0.26710 0.0000 Uiso
H155 H 0.85889 0.00000 0.27885 0.0000 Uiso
O157 O 0.90810 0.50000 0.67345 0.0000 Uiso
C158 C 0.81460 0.50000 0.76710 0.0000 Uiso
H159 H 0.85889 0.50000 0.77885 0.0000 Uiso
O161 O 0.40810 0.00000 0.67345 0.0000 Uiso
C162 C 0.31460 0.00000 0.76710 0.0000 Uiso
H163 H 0.35889 0.00000 0.77885 0.0000 Uiso
O165 O 0.40810 0.50000 0.17345 0.0000 Uiso
C166 C 0.31460 0.50000 0.26710 0.0000 Uiso
H167 H 0.35889 0.50000 0.27885 0.0000 Uiso
O169 O 0.09190 0.00000 0.82655 0.0000 Uiso
C170 C 0.18540 0.00000 0.73290 0.0000 Uiso
H171 H 0.14111 0.00000 0.72115 0.0000 Uiso
O173 O 0.09190 0.50000 0.32655 0.0000 Uiso
C174 C 0.18540 0.50000 0.23290 0.0000 Uiso
H175 H 0.14111 0.50000 0.22115 0.0000 Uiso
O177 O 0.59190 0.00000 0.32655 0.0000 Uiso
C178 C 0.68540 0.00000 0.23290 0.0000 Uiso
H179 H 0.64111 0.00000 0.22115 0.0000 Uiso
O181 O 0.59190 0.50000 0.82655 0.0000 Uiso
C182 C 0.68540 0.50000 0.73290 0.0000 Uiso
H183 H 0.64111 0.50000 0.72115 0.0000 Uiso
O185 O 0.90810 0.00000 0.82655 0.0000 Uiso
C186 C 0.81460 0.00000 0.73290 0.0000 Uiso
H187 H 0.85889 0.00000 0.72115 0.0000 Uiso
O189 O 0.90810 0.50000 0.32655 0.0000 Uiso
C190 C 0.81460 0.50000 0.23290 0.0000 Uiso
H191 H 0.85889 0.50000 0.22115 0.0000 Uiso
O193 O 0.40810 0.00000 0.32655 0.0000 Uiso
C194 C 0.31460 0.00000 0.23290 0.0000 Uiso
H195 H 0.35889 0.00000 0.22115 0.0000 Uiso
O197 O 0.40810 0.50000 0.82655 0.0000 Uiso
C198 C 0.31460 0.50000 0.73290 0.0000 Uiso
H199 H 0.35889 0.50000 0.72115 0.0000 Uiso
O201 O 0.09190 0.00000 0.17345 0.0000 Uiso
C202 C 0.18540 0.00000 0.26710 0.0000 Uiso
H203 H 0.14111 0.00000 0.27885 0.0000 Uiso
O205 O 0.09190 0.50000 0.67345 0.0000 Uiso
C206 C 0.18540 0.50000 0.76710 0.0000 Uiso
H207 H 0.14111 0.50000 0.77885 0.0000 Uiso
O209 O 0.59190 0.00000 0.67345 0.0000 Uiso
C210 C 0.68540 0.00000 0.76710 0.0000 Uiso
H211 H 0.64111 0.00000 0.77885 0.0000 Uiso
O213 O 0.59190 0.50000 0.17345 0.0000 Uiso
C214 C 0.68540 0.50000 0.26710 0.0000 Uiso
H215 H 0.64111 0.50000 0.27885 0.0000 Uiso
O217 O 0.90810 0.17345 0.00000 0.0000 Uiso
C218 C 0.81460 0.26710 0.00000 0.0000 Uiso
H219 H 0.85889 0.27885 0.00000 0.0000 Uiso
O221 O 0.90810 0.67345 0.50000 0.0000 Uiso
C222 C 0.81460 0.76710 0.50000 0.0000 Uiso
H223 H 0.85889 0.77885 0.50000 0.0000 Uiso
O225 O 0.40810 0.17345 0.50000 0.0000 Uiso
C226 C 0.31460 0.26710 0.50000 0.0000 Uiso
H227 H 0.35889 0.27885 0.50000 0.0000 Uiso
O229 O 0.40810 0.67345 0.00000 0.0000 Uiso
C230 C 0.31460 0.76710 0.00000 0.0000 Uiso
H231 H 0.35889 0.77885 0.00000 0.0000 Uiso
O233 O 0.09190 0.82655 0.00000 0.0000 Uiso
C234 C 0.18540 0.73290 0.00000 0.0000 Uiso
H235 H 0.14111 0.72115 0.00000 0.0000 Uiso
O237 O 0.09190 0.32655 0.50000 0.0000 Uiso
C238 C 0.18540 0.23290 0.50000 0.0000 Uiso
H239 H 0.14111 0.22115 0.50000 0.0000 Uiso
O241 O 0.59190 0.82655 0.50000 0.0000 Uiso
C242 C 0.68540 0.73290 0.50000 0.0000 Uiso
H243 H 0.64111 0.72115 0.50000 0.0000 Uiso
O245 O 0.59190 0.32655 0.00000 0.0000 Uiso
C246 C 0.68540 0.23290 0.00000 0.0000 Uiso
H247 H 0.64111 0.22115 0.00000 0.0000 Uiso
O249 O 0.90810 0.82655 0.00000 0.0000 Uiso
C250 C 0.81460 0.73290 0.00000 0.0000 Uiso
H251 H 0.85889 0.72115 0.00000 0.0000 Uiso
O253 O 0.90810 0.32655 0.50000 0.0000 Uiso
C254 C 0.81460 0.23290 0.50000 0.0000 Uiso
H255 H 0.85889 0.22115 0.50000 0.0000 Uiso
O257 O 0.40810 0.82655 0.50000 0.0000 Uiso
C258 C 0.31460 0.73290 0.50000 0.0000 Uiso
H259 H 0.35889 0.72115 0.50000 0.0000 Uiso
O261 O 0.40810 0.32655 0.00000 0.0000 Uiso
C262 C 0.31460 0.23290 0.00000 0.0000 Uiso
H263 H 0.35889 0.22115 0.00000 0.0000 Uiso
O265 O 0.09190 0.17345 0.00000 0.0000 Uiso
C266 C 0.18540 0.26710 0.00000 0.0000 Uiso
H267 H 0.14111 0.27885 0.00000 0.0000 Uiso
O269 O 0.09190 0.67345 0.50000 0.0000 Uiso
C270 C 0.18540 0.76710 0.50000 0.0000 Uiso
H271 H 0.14111 0.77885 0.50000 0.0000 Uiso
O273 O 0.59190 0.17345 0.50000 0.0000 Uiso
C274 C 0.68540 0.26710 0.50000 0.0000 Uiso
H275 H 0.64111 0.27885 0.50000 0.0000 Uiso
O277 O 0.59190 0.67345 0.00000 0.0000 Uiso
C278 C 0.68540 0.76710 0.00000 0.0000 Uiso
H279 H 0.64111 0.77885 0.00000 0.0000 Uiso
O281 O 0.17345 0.00000 0.09190 0.0000 Uiso
C282 C 0.26710 0.00000 0.18540 0.0000 Uiso
H283 H 0.27885 0.00000 0.14111 0.0000 Uiso
O285 O 0.17345 0.50000 0.59190 0.0000 Uiso
C286 C 0.26710 0.50000 0.68540 0.0000 Uiso
H287 H 0.27885 0.50000 0.64111 0.0000 Uiso
O289 O 0.67345 0.00000 0.59190 0.0000 Uiso
C290 C 0.76710 0.00000 0.68540 0.0000 Uiso
H291 H 0.77885 0.00000 0.64111 0.0000 Uiso
O293 O 0.67345 0.50000 0.09190 0.0000 Uiso
C294 C 0.76710 0.50000 0.18540 0.0000 Uiso
H295 H 0.77885 0.50000 0.14111 0.0000 Uiso
O297 O 0.82655 0.00000 0.90810 0.0000 Uiso
C298 C 0.73290 0.00000 0.81460 0.0000 Uiso
H299 H 0.72115 0.00000 0.85889 0.0000 Uiso
O301 O 0.82655 0.50000 0.40810 0.0000 Uiso
C302 C 0.73290 0.50000 0.31460 0.0000 Uiso
H303 H 0.72115 0.50000 0.35889 0.0000 Uiso
O305 O 0.32655 0.00000 0.40810 0.0000 Uiso
C306 C 0.23290 0.00000 0.31460 0.0000 Uiso
H307 H 0.22115 0.00000 0.35889 0.0000 Uiso
O309 O 0.32655 0.50000 0.90810 0.0000 Uiso
C310 C 0.23290 0.50000 0.81460 0.0000 Uiso
H311 H 0.22115 0.50000 0.85889 0.0000 Uiso
O313 O 0.82655 0.00000 0.09190 0.0000 Uiso
C314 C 0.73290 0.00000 0.18540 0.0000 Uiso
H315 H 0.72115 0.00000 0.14111 0.0000 Uiso
O317 O 0.82655 0.50000 0.59190 0.0000 Uiso
C318 C 0.73290 0.50000 0.68540 0.0000 Uiso
H319 H 0.72115 0.50000 0.64111 0.0000 Uiso
O321 O 0.32655 0.00000 0.59190 0.0000 Uiso
C322 C 0.23290 0.00000 0.68540 0.0000 Uiso
H323 H 0.22115 0.00000 0.64111 0.0000 Uiso
O325 O 0.32655 0.50000 0.09190 0.0000 Uiso
C326 C 0.23290 0.50000 0.18540 0.0000 Uiso
H327 H 0.22115 0.50000 0.14111 0.0000 Uiso
O329 O 0.17345 0.00000 0.90810 0.0000 Uiso
C330 C 0.26710 0.00000 0.81460 0.0000 Uiso
H331 H 0.27885 0.00000 0.85889 0.0000 Uiso
O333 O 0.17345 0.50000 0.40810 0.0000 Uiso
C334 C 0.26710 0.50000 0.31460 0.0000 Uiso
H335 H 0.27885 0.50000 0.35889 0.0000 Uiso
O337 O 0.67345 0.00000 0.40810 0.0000 Uiso
C338 C 0.76710 0.00000 0.31460 0.0000 Uiso
H339 H 0.77885 0.00000 0.35889 0.0000 Uiso
O341 O 0.67345 0.50000 0.90810 0.0000 Uiso
C342 C 0.76710 0.50000 0.81460 0.0000 Uiso
H343 H 0.77885 0.50000 0.85889 0.0000 Uiso
O345 O 0.00000 0.90810 0.82655 0.0000 Uiso
C346 C 0.00000 0.81460 0.73290 0.0000 Uiso
H347 H 0.00000 0.85889 0.72115 0.0000 Uiso
O349 O 0.00000 0.40810 0.32655 0.0000 Uiso
C350 C 0.00000 0.31460 0.23290 0.0000 Uiso
H351 H 0.00000 0.35889 0.22115 0.0000 Uiso
O353 O 0.50000 0.90810 0.32655 0.0000 Uiso
C354 C 0.50000 0.81460 0.23290 0.0000 Uiso
H355 H 0.50000 0.85889 0.22115 0.0000 Uiso
O357 O 0.50000 0.40810 0.82655 0.0000 Uiso
C358 C 0.50000 0.31460 0.73290 0.0000 Uiso
H359 H 0.50000 0.35889 0.72115 0.0000 Uiso
O361 O 0.00000 0.09190 0.17345 0.0000 Uiso
C362 C 0.00000 0.18540 0.26710 0.0000 Uiso
H363 H 0.00000 0.14111 0.27885 0.0000 Uiso
O365 O 0.00000 0.59190 0.67345 0.0000 Uiso
C366 C 0.00000 0.68540 0.76710 0.0000 Uiso
H367 H 0.00000 0.64111 0.77885 0.0000 Uiso
O369 O 0.50000 0.09190 0.67345 0.0000 Uiso
C370 C 0.50000 0.18540 0.76710 0.0000 Uiso
H371 H 0.50000 0.14111 0.77885 0.0000 Uiso
O373 O 0.50000 0.59190 0.17345 0.0000 Uiso
C374 C 0.50000 0.68540 0.26710 0.0000 Uiso
H375 H 0.50000 0.64111 0.27885 0.0000 Uiso
O377 O 0.00000 0.90810 0.17345 0.0000 Uiso
C378 C 0.00000 0.81460 0.26710 0.0000 Uiso
H379 H 0.00000 0.85889 0.27885 0.0000 Uiso
O381 O 0.00000 0.40810 0.67345 0.0000 Uiso
C382 C 0.00000 0.31460 0.76710 0.0000 Uiso
H383 H 0.00000 0.35889 0.77885 0.0000 Uiso
O385 O 0.50000 0.90810 0.67345 0.0000 Uiso
C386 C 0.50000 0.81460 0.76710 0.0000 Uiso
H387 H 0.50000 0.85889 0.77885 0.0000 Uiso
O389 O 0.50000 0.40810 0.17345 0.0000 Uiso
C390 C 0.50000 0.31460 0.26710 0.0000 Uiso
H391 H 0.50000 0.35889 0.27885 0.0000 Uiso
O393 O 0.00000 0.09190 0.82655 0.0000 Uiso
C394 C 0.00000 0.18540 0.73290 0.0000 Uiso
H395 H 0.00000 0.14111 0.72115 0.0000 Uiso
O397 O 0.00000 0.59190 0.32655 0.0000 Uiso
C398 C 0.00000 0.68540 0.23290 0.0000 Uiso
H399 H 0.00000 0.64111 0.22115 0.0000 Uiso
O401 O 0.50000 0.09190 0.32655 0.0000 Uiso
C402 C 0.50000 0.18540 0.23290 0.0000 Uiso
H403 H 0.50000 0.14111 0.22115 0.0000 Uiso
O405 O 0.50000 0.59190 0.82655 0.0000 Uiso
C406 C 0.50000 0.68540 0.73290 0.0000 Uiso
H407 H 0.50000 0.64111 0.72115 0.0000 Uiso
C409 C 0.15170 0.84830 0.00000 0.0000 Uiso
C410 C 0.20300 0.79700 0.00000 0.0000 Uiso
C411 C 0.15170 0.34830 0.50000 0.0000 Uiso
C412 C 0.20300 0.29700 0.50000 0.0000 Uiso
C413 C 0.65170 0.84830 0.50000 0.0000 Uiso
C414 C 0.70300 0.79700 0.50000 0.0000 Uiso
C415 C 0.65170 0.34830 0.00000 0.0000 Uiso
C416 C 0.70300 0.29700 0.00000 0.0000 Uiso
C417 C 0.84830 0.15170 0.00000 0.0000 Uiso
C418 C 0.79700 0.20300 0.00000 0.0000 Uiso
C419 C 0.84830 0.65170 0.50000 0.0000 Uiso
C420 C 0.79700 0.70300 0.50000 0.0000 Uiso
C421 C 0.34830 0.15170 0.50000 0.0000 Uiso
C422 C 0.29700 0.20300 0.50000 0.0000 Uiso
C423 C 0.34830 0.65170 0.00000 0.0000 Uiso
C424 C 0.29700 0.70300 0.00000 0.0000 Uiso
C425 C 0.84830 0.84830 0.00000 0.0000 Uiso
C426 C 0.79700 0.79700 0.00000 0.0000 Uiso
C427 C 0.84830 0.34830 0.50000 0.0000 Uiso
C428 C 0.79700 0.29700 0.50000 0.0000 Uiso
C429 C 0.34830 0.84830 0.50000 0.0000 Uiso
C430 C 0.29700 0.79700 0.50000 0.0000 Uiso
C431 C 0.34830 0.34830 0.00000 0.0000 Uiso
C432 C 0.29700 0.29700 0.00000 0.0000 Uiso
C433 C 0.15170 0.15170 0.00000 0.0000 Uiso
C434 C 0.20300 0.20300 0.00000 0.0000 Uiso
C435 C 0.15170 0.65170 0.50000 0.0000 Uiso
C436 C 0.20300 0.70300 0.50000 0.0000 Uiso
C437 C 0.65170 0.15170 0.50000 0.0000 Uiso
C438 C 0.70300 0.20300 0.50000 0.0000 Uiso
C439 C 0.65170 0.65170 0.00000 0.0000 Uiso
C440 C 0.70300 0.70300 0.00000 0.0000 Uiso
C441 C 0.00000 0.15170 0.84830 0.0000 Uiso
C442 C 0.00000 0.20300 0.79700 0.0000 Uiso
C443 C 0.00000 0.65170 0.34830 0.0000 Uiso
C444 C 0.00000 0.70300 0.29700 0.0000 Uiso
C445 C 0.50000 0.15170 0.34830 0.0000 Uiso
C446 C 0.50000 0.20300 0.29700 0.0000 Uiso
C447 C 0.50000 0.65170 0.84830 0.0000 Uiso
C448 C 0.50000 0.70300 0.79700 0.0000 Uiso
C449 C 0.00000 0.84830 0.15170 0.0000 Uiso
C450 C 0.00000 0.79700 0.20300 0.0000 Uiso
C451 C 0.00000 0.34830 0.65170 0.0000 Uiso
C452 C 0.00000 0.29700 0.70300 0.0000 Uiso
C453 C 0.50000 0.84830 0.65170 0.0000 Uiso
C454 C 0.50000 0.79700 0.70300 0.0000 Uiso
C455 C 0.50000 0.34830 0.15170 0.0000 Uiso
C456 C 0.50000 0.29700 0.20300 0.0000 Uiso
C457 C 0.00000 0.84830 0.84830 0.0000 Uiso
C458 C 0.00000 0.79700 0.79700 0.0000 Uiso
C459 C 0.00000 0.34830 0.34830 0.0000 Uiso
C460 C 0.00000 0.29700 0.29700 0.0000 Uiso
C461 C 0.50000 0.84830 0.34830 0.0000 Uiso
C462 C 0.50000 0.79700 0.29700 0.0000 Uiso
C463 C 0.50000 0.34830 0.84830 0.0000 Uiso
C464 C 0.50000 0.29700 0.79700 0.0000 Uiso
C465 C 0.00000 0.15170 0.15170 0.0000 Uiso
C466 C 0.00000 0.20300 0.20300 0.0000 Uiso
C467 C 0.00000 0.65170 0.65170 0.0000 Uiso
C468 C 0.00000 0.70300 0.70300 0.0000 Uiso
C469 C 0.50000 0.15170 0.65170 0.0000 Uiso
C470 C 0.50000 0.20300 0.70300 0.0000 Uiso
C471 C 0.50000 0.65170 0.15170 0.0000 Uiso
C472 C 0.50000 0.70300 0.20300 0.0000 Uiso
C473 C 0.84830 0.00000 0.15170 0.0000 Uiso
C474 C 0.79700 0.00000 0.20300 0.0000 Uiso
C475 C 0.84830 0.50000 0.65170 0.0000 Uiso
C476 C 0.79700 0.50000 0.70300 0.0000 Uiso
C477 C 0.34830 0.00000 0.65170 0.0000 Uiso
C478 C 0.29700 0.00000 0.70300 0.0000 Uiso
C479 C 0.34830 0.50000 0.15170 0.0000 Uiso
C480 C 0.29700 0.50000 0.20300 0.0000 Uiso
C481 C 0.15170 0.00000 0.84830 0.0000 Uiso
C482 C 0.20300 0.00000 0.79700 0.0000 Uiso
C483 C 0.15170 0.50000 0.34830 0.0000 Uiso
C484 C 0.20300 0.50000 0.29700 0.0000 Uiso
C485 C 0.65170 0.00000 0.34830 0.0000 Uiso
C486 C 0.70300 0.00000 0.29700 0.0000 Uiso
C487 C 0.65170 0.50000 0.84830 0.0000 Uiso
C488 C 0.70300 0.50000 0.79700 0.0000 Uiso
C489 C 0.84830 0.00000 0.84830 0.0000 Uiso
C490 C 0.79700 0.00000 0.79700 0.0000 Uiso
C491 C 0.84830 0.50000 0.34830 0.0000 Uiso
C492 C 0.79700 0.50000 0.29700 0.0000 Uiso
C493 C 0.34830 0.00000 0.34830 0.0000 Uiso
C494 C 0.29700 0.00000 0.29700 0.0000 Uiso
C495 C 0.34830 0.50000 0.84830 0.0000 Uiso
C496 C 0.29700 0.50000 0.79700 0.0000 Uiso
C497 C 0.15170 0.00000 0.15170 0.0000 Uiso
C498 C 0.20300 0.00000 0.20300 0.0000 Uiso
C499 C 0.15170 0.50000 0.65170 0.0000 Uiso
C500 C 0.20300 0.50000 0.70300 0.0000 Uiso
C501 C 0.65170 0.00000 0.65170 0.0000 Uiso
C502 C 0.70300 0.00000 0.70300 0.0000 Uiso
C503 C 0.65170 0.50000 0.15170 0.0000 Uiso
C504 C 0.70300 0.50000 0.20300 0.0000 Uiso
O506 O 0.06760 0.06760 0.06760 0.0000 Uiso
H507 H 0.08990 0.08990 0.08990 0.0000 Uiso
O509 O 0.06760 0.56760 0.56760 0.0000 Uiso
H510 H 0.08990 0.58990 0.58990 0.0000 Uiso
O512 O 0.56760 0.06760 0.56760 0.0000 Uiso
H513 H 0.58990 0.08990 0.58990 0.0000 Uiso
O515 O 0.56760 0.56760 0.06760 0.0000 Uiso
H516 H 0.58990 0.58990 0.08990 0.0000 Uiso
O521 O 0.93240 0.43240 0.56760 0.0000 Uiso
H522 H 0.91010 0.41010 0.58990 0.0000 Uiso
O524 O 0.43240 0.93240 0.56760 0.0000 Uiso
H525 H 0.41010 0.91010 0.58990 0.0000 Uiso
O527 O 0.43240 0.43240 0.06760 0.0000 Uiso
H528 H 0.41010 0.41010 0.08990 0.0000 Uiso
O533 O 0.93240 0.56760 0.43240 0.0000 Uiso
H534 H 0.91010 0.58990 0.41010 0.0000 Uiso
O536 O 0.43240 0.06760 0.43240 0.0000 Uiso
H537 H 0.41010 0.08990 0.41010 0.0000 Uiso
O539 O 0.43240 0.56760 0.93240 0.0000 Uiso
O545 O 0.06760 0.43240 0.43240 0.0000 Uiso
H546 H 0.08990 0.41010 0.41010 0.0000 Uiso
O548 O 0.56760 0.93240 0.43240 0.0000 Uiso
H549 H 0.58990 0.91010 0.41010 0.0000 Uiso
O551 O 0.56760 0.43240 0.93240 0.0000 Uiso
H552 H 0.58990 0.41010 0.91010 0.0000 Uiso
O554 O 0.06760 0.06760 0.93240 0.0000 Uiso
H555 H 0.08990 0.08990 0.91010 0.0000 Uiso
O557 O 0.06760 0.56760 0.43240 0.0000 Uiso
H558 H 0.08990 0.58990 0.41010 0.0000 Uiso
O560 O 0.56760 0.06760 0.43240 0.0000 Uiso
H561 H 0.58990 0.08990 0.41010 0.0000 Uiso
O563 O 0.56760 0.56760 0.93240 0.0000 Uiso
H564 H 0.58990 0.58990 0.91010 0.0000 Uiso
O569 O 0.93240 0.43240 0.43240 0.0000 Uiso
H570 H 0.91010 0.41010 0.41010 0.0000 Uiso
O572 O 0.43240 0.93240 0.43240 0.0000 Uiso
H573 H 0.41010 0.91010 0.41010 0.0000 Uiso
O575 O 0.43240 0.43240 0.93240 0.0000 Uiso
O578 O 0.06760 0.93240 0.06760 0.0000 Uiso
H579 H 0.08990 0.91010 0.08990 0.0000 Uiso
O581 O 0.06760 0.43240 0.56760 0.0000 Uiso
H582 H 0.08990 0.41010 0.58990 0.0000 Uiso
O584 O 0.56760 0.93240 0.56760 0.0000 Uiso
H585 H 0.58990 0.91010 0.58990 0.0000 Uiso
O587 O 0.56760 0.43240 0.06760 0.0000 Uiso
H588 H 0.58990 0.41010 0.08990 0.0000 Uiso
O590 O 0.93240 0.06760 0.06760 0.0000 Uiso
H591 H 0.91010 0.08990 0.08990 0.0000 Uiso
O593 O 0.93240 0.56760 0.56760 0.0000 Uiso
H594 H 0.91010 0.58990 0.58990 0.0000 Uiso
O596 O 0.43240 0.06760 0.56760 0.0000 Uiso
H597 H 0.41010 0.08990 0.58990 0.0000 Uiso
O599 O 0.43240 0.56760 0.06760 0.0000 Uiso
H600 H 0.41010 0.58990 0.08990 0.0000 Uiso
O518 O 0.93240 -0.06760 0.06760 0.0000 Uiso
H519 H 0.91010 -0.08990 0.08990 0.0000 Uiso
O530 O 0.93240 0.06760 -0.06760 0.0000 Uiso
H531 H 0.91010 0.08990 -0.08990 0.0000 Uiso
O542 O 0.06760 -0.06760 -0.06760 0.0000 Uiso
H543 H 0.08990 -0.08990 -0.08990 0.0000 Uiso
O566 O 0.93240 -0.06760 -0.06760 0.0000 Uiso
H567 H 0.91010 -0.08990 -0.08990 0.0000 Uiso
Zr1 Zr 0.11961 0.00000 1.00000 0.0000 Uiso
Zr1 Zr 0.11961 1.00000 0.00000 0.0000 Uiso
Zr3 Zr 0.61961 1.00000 0.50000 0.0000 Uiso
Zr4 Zr 0.61961 0.50000 1.00000 0.0000 Uiso
Zr5 Zr -0.11961 0.00000 0.00000 0.0000 Uiso
Zr5 Zr -0.11961 0.00000 1.00000 0.0000 Uiso
Zr5 Zr -0.11961 1.00000 0.00000 0.0000 Uiso
Zr5 Zr 0.88039 0.00000 1.00000 0.0000 Uiso
Zr5 Zr 0.88039 1.00000 0.00000 0.0000 Uiso
Zr6 Zr -0.11961 0.50000 0.50000 0.0000 Uiso
Zr7 Zr 0.38039 1.00000 0.50000 0.0000 Uiso
Zr8 Zr 0.38039 0.50000 1.00000 0.0000 Uiso
Zr9 Zr 0.00000 0.11961 1.00000 0.0000 Uiso
Zr9 Zr 1.00000 0.11961 0.00000 0.0000 Uiso
Zr10 Zr 1.00000 0.61961 0.50000 0.0000 Uiso
Zr12 Zr 0.50000 0.61961 1.00000 0.0000 Uiso
Zr13 Zr 0.00000 -0.11961 0.00000 0.0000 Uiso
Zr13 Zr 0.00000 -0.11961 1.00000 0.0000 Uiso
Zr13 Zr 0.00000 0.88039 1.00000 0.0000 Uiso
Zr13 Zr 1.00000 -0.11961 0.00000 0.0000 Uiso
Zr13 Zr 1.00000 0.88039 0.00000 0.0000 Uiso
Zr14 Zr 1.00000 0.38039 0.50000 0.0000 Uiso
Zr15 Zr 0.50000 -0.11961 0.50000 0.0000 Uiso
Zr16 Zr 0.50000 0.38039 1.00000 0.0000 Uiso
Zr17 Zr 0.00000 1.00000 0.11961 0.0000 Uiso
Zr17 Zr 1.00000 0.00000 0.11961 0.0000 Uiso
Zr18 Zr 1.00000 0.50000 0.61961 0.0000 Uiso
Zr19 Zr 0.50000 1.00000 0.61961 0.0000 Uiso
Zr21 Zr 0.00000 0.00000 -0.11961 0.0000 Uiso
Zr21 Zr 0.00000 1.00000 -0.11961 0.0000 Uiso
Zr21 Zr 0.00000 1.00000 0.88039 0.0000 Uiso
Zr21 Zr 1.00000 0.00000 -0.11961 0.0000 Uiso
Zr21 Zr 1.00000 0.00000 0.88039 0.0000 Uiso
Zr22 Zr 1.00000 0.50000 0.38039 0.0000 Uiso
Zr23 Zr 0.50000 1.00000 0.38039 0.0000 Uiso
Zr24 Zr 0.50000 0.50000 -0.11961 0.0000 Uiso
O25 O 0.17345 -0.09190 0.00000 0.0000 Uiso
O33 O 0.67345 -0.09190 0.50000 0.0000 Uiso
O57 O 0.82655 -0.09190 0.00000 0.0000 Uiso
O65 O 0.32655 -0.09190 0.50000 0.0000 Uiso
O89 O 0.00000 0.17345 -0.09190 0.0000 Uiso
O101 O 0.50000 0.67345 -0.09190 0.0000 Uiso
O121 O 0.00000 0.82655 -0.09190 0.0000 Uiso
O133 O 0.50000 0.32655 -0.09190 0.0000 Uiso
O153 O -0.09190 0.00000 0.17345 0.0000 Uiso
O157 O -0.09190 0.50000 0.67345 0.0000 Uiso
O185 O -0.09190 0.00000 0.82655 0.0000 Uiso
O189 O -0.09190 0.50000 0.32655 0.0000 Uiso
O217 O -0.09190 0.17345 0.00000 0.0000 Uiso
O221 O -0.09190 0.67345 0.50000 0.0000 Uiso
O249 O -0.09190 0.82655 0.00000 0.0000 Uiso
O253 O -0.09190 0.32655 0.50000 0.0000 Uiso
O297 O 0.82655 0.00000 -0.09190 0.0000 Uiso
O309 O 0.32655 0.50000 -0.09190 0.0000 Uiso
O329 O 0.17345 0.00000 -0.09190 0.0000 Uiso
O341 O 0.67345 0.50000 -0.09190 0.0000 Uiso
O345 O 0.00000 -0.09190 0.82655 0.0000 Uiso
O353 O 0.50000 -0.09190 0.32655 0.0000 Uiso
O377 O 0.00000 -0.09190 0.17345 0.0000 Uiso
O385 O 0.50000 -0.09190 0.67345 0.0000 Uiso
O521 O -0.06760 0.43240 0.56760 0.0000 Uiso
O524 O 0.43240 -0.06760 0.56760 0.0000 Uiso
O533 O -0.06760 0.56760 0.43240 0.0000 Uiso
O539 O 0.43240 0.56760 -0.06760 0.0000 Uiso
O548 O 0.56760 -0.06760 0.43240 0.0000 Uiso
O551 O 0.56760 0.43240 -0.06760 0.0000 Uiso
O554 O 0.06760 0.06760 -0.06760 0.0000 Uiso
O563 O 0.56760 0.56760 -0.06760 0.0000 Uiso
O569 O -0.06760 0.43240 0.43240 0.0000 Uiso
O572 O 0.43240 -0.06760 0.43240 0.0000 Uiso
O575 O 0.43240 0.43240 -0.06760 0.0000 Uiso
O578 O 0.06760 -0.06760 0.06760 0.0000 Uiso
O584 O 0.56760 -0.06760 0.56760 0.0000 Uiso
O590 O -0.06760 0.06760 0.06760 0.0000 Uiso
O593 O -0.06760 0.56760 0.56760 0.0000 Uiso
O518 O -0.06760 -0.06760 0.06760 0.0000 Uiso
O518 O -0.06760 0.93240 0.06760 0.0000 Uiso
O530 O -0.06760 0.06760 -0.06760 0.0000 Uiso
O530 O -0.06760 0.06760 0.93240 0.0000 Uiso
O542 O 0.06760 -0.06760 0.93240 0.0000 Uiso
O542 O 0.06760 0.93240 -0.06760 0.0000 Uiso
O566 O -0.06760 -0.06760 0.93240 0.0000 Uiso
O566 O -0.06760 0.93240 -0.06760 0.0000 Uiso
H128 H 0.595223 0.404777 -0.0952228 . .
H129 H -0.0952228 0.404777 0.404777 . .
H130 H -0.0952228 0.404777 0.595223 . .
H132 H -0.0952228 -0.0952228 0.904777 . .
H133 H -0.0952228 -0.0952228 0.0952228 . .
H134 H -0.0952228 0.0952228 -0.0952228 . .
H136 H 0.404777 0.404777 -0.0952228 . .
H137 H 0.404777 0.404777 0.904777 . .
H138 H -0.0952228 0.595223 0.404777 . .
H140 H -0.0952228 0.904777 -0.0952228 . .
H141 H 0.404777 0.595223 -0.0952228 . .
H142 H 0.404777 -0.0952228 0.595223 . .
H144 H 0.404777 -0.0952228 0.404777 . .

#END
