
#######################################################################
#
#                 Cambridge Crystallographic Data Centre
#                                CCDC 
#
#######################################################################
#
# If this CIF has been generated from an entry in the Cambridge 
# Structural Database, then it will include bibliographic, chemical, 
# crystal, experimental, refinement or atomic coordinate data resulting 
# from the CCDC's data processing and validation procedures.
#
#######################################################################

data_UFOSOA.Zr_MOFs_Nov2018+3updates
_symmetry_cell_setting           triclinic
_symmetry_space_group_name_H-M   'P 1'
_symmetry_Int_Tables_number      1
_space_group_name_Hall           'P 1'
loop_
_symmetry_equiv_pos_site_id
_symmetry_equiv_pos_as_xyz
1 x,y,z
_cell_length_a                   20.7123
_cell_length_b                   20.7123
_cell_length_c                   20.7123
_cell_angle_alpha                90.0000
_cell_angle_beta                 90.0000
_cell_angle_gamma                90.0000
_cell_volume                     8885.56
loop_
_atom_site_label
_atom_site_type_symbol
_atom_site_fract_x
_atom_site_fract_y
_atom_site_fract_z
_atom_site_U_iso_or_equiv
_atom_site_thermal_displace_type
Zr1 Zr 0.11941 0.00000 0.00000 0.0000 Uiso
Zr2 Zr 0.11941 0.50000 0.50000 0.0000 Uiso
Zr3 Zr 0.61941 0.00000 0.50000 0.0000 Uiso
Zr4 Zr 0.61941 0.50000 0.00000 0.0000 Uiso
Zr5 Zr 0.88059 0.00000 0.00000 0.0000 Uiso
Zr6 Zr 0.88059 0.50000 0.50000 0.0000 Uiso
Zr7 Zr 0.38059 0.00000 0.50000 0.0000 Uiso
Zr8 Zr 0.38059 0.50000 0.00000 0.0000 Uiso
Zr9 Zr 0.00000 0.11941 0.00000 0.0000 Uiso
Zr10 Zr 0.00000 0.61941 0.50000 0.0000 Uiso
Zr11 Zr 0.50000 0.11941 0.50000 0.0000 Uiso
Zr12 Zr 0.50000 0.61941 0.00000 0.0000 Uiso
Zr13 Zr 0.00000 0.88059 0.00000 0.0000 Uiso
Zr14 Zr 0.00000 0.38059 0.50000 0.0000 Uiso
Zr15 Zr 0.50000 0.88059 0.50000 0.0000 Uiso
Zr16 Zr 0.50000 0.38059 0.00000 0.0000 Uiso
Zr17 Zr 0.00000 0.00000 0.11941 0.0000 Uiso
Zr18 Zr 0.00000 0.50000 0.61941 0.0000 Uiso
Zr19 Zr 0.50000 0.00000 0.61941 0.0000 Uiso
Zr20 Zr 0.50000 0.50000 0.11941 0.0000 Uiso
Zr21 Zr 0.00000 0.00000 0.88059 0.0000 Uiso
Zr22 Zr 0.00000 0.50000 0.38059 0.0000 Uiso
Zr23 Zr 0.50000 0.00000 0.38059 0.0000 Uiso
Zr24 Zr 0.50000 0.50000 0.88059 0.0000 Uiso
O25 O 0.17078 0.90649 0.00000 0.0000 Uiso
C26 C 0.26712 0.81457 0.00000 0.0000 Uiso
H27 H 0.27898 0.85887 0.00000 0.0000 Uiso
O28 O 0.17078 0.40649 0.50000 0.0000 Uiso
C29 C 0.26712 0.31457 0.50000 0.0000 Uiso
H30 H 0.27898 0.35887 0.50000 0.0000 Uiso
O31 O 0.67078 0.90649 0.50000 0.0000 Uiso
C32 C 0.76712 0.81457 0.50000 0.0000 Uiso
H33 H 0.77898 0.85887 0.50000 0.0000 Uiso
O34 O 0.67078 0.40649 0.00000 0.0000 Uiso
C35 C 0.76712 0.31457 0.00000 0.0000 Uiso
H36 H 0.77898 0.35887 0.00000 0.0000 Uiso
O37 O 0.82922 0.09351 0.00000 0.0000 Uiso
C38 C 0.73288 0.18543 0.00000 0.0000 Uiso
H39 H 0.72102 0.14113 0.00000 0.0000 Uiso
O40 O 0.82922 0.59351 0.50000 0.0000 Uiso
C41 C 0.73288 0.68543 0.50000 0.0000 Uiso
H42 H 0.72102 0.64113 0.50000 0.0000 Uiso
O43 O 0.32922 0.09351 0.50000 0.0000 Uiso
C44 C 0.23288 0.18543 0.50000 0.0000 Uiso
H45 H 0.22102 0.14113 0.50000 0.0000 Uiso
O46 O 0.32922 0.59351 0.00000 0.0000 Uiso
C47 C 0.23288 0.68543 0.00000 0.0000 Uiso
H48 H 0.22102 0.64113 0.00000 0.0000 Uiso
O49 O 0.82922 0.90649 0.00000 0.0000 Uiso
C50 C 0.73288 0.81457 0.00000 0.0000 Uiso
H51 H 0.72102 0.85887 0.00000 0.0000 Uiso
O52 O 0.82922 0.40649 0.50000 0.0000 Uiso
C53 C 0.73288 0.31457 0.50000 0.0000 Uiso
H54 H 0.72102 0.35887 0.50000 0.0000 Uiso
O55 O 0.32922 0.90649 0.50000 0.0000 Uiso
C56 C 0.23288 0.81457 0.50000 0.0000 Uiso
H57 H 0.22102 0.85887 0.50000 0.0000 Uiso
O58 O 0.32922 0.40649 0.00000 0.0000 Uiso
C59 C 0.23288 0.31457 0.00000 0.0000 Uiso
H60 H 0.22102 0.35887 0.00000 0.0000 Uiso
O61 O 0.17078 0.09351 0.00000 0.0000 Uiso
C62 C 0.26712 0.18543 0.00000 0.0000 Uiso
H63 H 0.27898 0.14113 0.00000 0.0000 Uiso
O64 O 0.17078 0.59351 0.50000 0.0000 Uiso
C65 C 0.26712 0.68543 0.50000 0.0000 Uiso
H66 H 0.27898 0.64113 0.50000 0.0000 Uiso
O67 O 0.67078 0.09351 0.50000 0.0000 Uiso
C68 C 0.76712 0.18543 0.50000 0.0000 Uiso
H69 H 0.77898 0.14113 0.50000 0.0000 Uiso
O70 O 0.67078 0.59351 0.00000 0.0000 Uiso
C71 C 0.76712 0.68543 0.00000 0.0000 Uiso
H72 H 0.77898 0.64113 0.00000 0.0000 Uiso
O73 O 0.00000 0.17078 0.90649 0.0000 Uiso
C74 C 0.00000 0.26712 0.81457 0.0000 Uiso
H75 H 0.00000 0.27898 0.85887 0.0000 Uiso
O76 O 0.00000 0.67078 0.40649 0.0000 Uiso
C77 C 0.00000 0.76712 0.31457 0.0000 Uiso
H78 H 0.00000 0.77898 0.35887 0.0000 Uiso
O79 O 0.50000 0.17078 0.40649 0.0000 Uiso
C80 C 0.50000 0.26712 0.31457 0.0000 Uiso
H81 H 0.50000 0.27898 0.35887 0.0000 Uiso
O82 O 0.50000 0.67078 0.90649 0.0000 Uiso
C83 C 0.50000 0.76712 0.81457 0.0000 Uiso
H84 H 0.50000 0.77898 0.85887 0.0000 Uiso
O85 O 0.00000 0.82922 0.09351 0.0000 Uiso
C86 C 0.00000 0.73288 0.18543 0.0000 Uiso
H87 H 0.00000 0.72102 0.14113 0.0000 Uiso
O88 O 0.00000 0.32922 0.59351 0.0000 Uiso
C89 C 0.00000 0.23288 0.68543 0.0000 Uiso
H90 H 0.00000 0.22102 0.64113 0.0000 Uiso
O91 O 0.50000 0.82922 0.59351 0.0000 Uiso
C92 C 0.50000 0.73288 0.68543 0.0000 Uiso
H93 H 0.50000 0.72102 0.64113 0.0000 Uiso
O94 O 0.50000 0.32922 0.09351 0.0000 Uiso
C95 C 0.50000 0.23288 0.18543 0.0000 Uiso
H96 H 0.50000 0.22102 0.14113 0.0000 Uiso
O97 O 0.00000 0.82922 0.90649 0.0000 Uiso
C98 C 0.00000 0.73288 0.81457 0.0000 Uiso
H99 H 0.00000 0.72102 0.85887 0.0000 Uiso
O100 O 0.00000 0.32922 0.40649 0.0000 Uiso
C101 C 0.00000 0.23288 0.31457 0.0000 Uiso
H102 H 0.00000 0.22102 0.35887 0.0000 Uiso
O103 O 0.50000 0.82922 0.40649 0.0000 Uiso
C104 C 0.50000 0.73288 0.31457 0.0000 Uiso
H105 H 0.50000 0.72102 0.35887 0.0000 Uiso
O106 O 0.50000 0.32922 0.90649 0.0000 Uiso
C107 C 0.50000 0.23288 0.81457 0.0000 Uiso
H108 H 0.50000 0.22102 0.85887 0.0000 Uiso
O109 O 0.00000 0.17078 0.09351 0.0000 Uiso
C110 C 0.00000 0.26712 0.18543 0.0000 Uiso
H111 H 0.00000 0.27898 0.14113 0.0000 Uiso
O112 O 0.00000 0.67078 0.59351 0.0000 Uiso
C113 C 0.00000 0.76712 0.68543 0.0000 Uiso
H114 H 0.00000 0.77898 0.64113 0.0000 Uiso
O115 O 0.50000 0.17078 0.59351 0.0000 Uiso
C116 C 0.50000 0.26712 0.68543 0.0000 Uiso
H117 H 0.50000 0.27898 0.64113 0.0000 Uiso
O118 O 0.50000 0.67078 0.09351 0.0000 Uiso
C119 C 0.50000 0.76712 0.18543 0.0000 Uiso
H120 H 0.50000 0.77898 0.14113 0.0000 Uiso
O121 O 0.90649 0.00000 0.17078 0.0000 Uiso
C122 C 0.81457 0.00000 0.26712 0.0000 Uiso
H123 H 0.85887 0.00000 0.27898 0.0000 Uiso
O124 O 0.90649 0.50000 0.67078 0.0000 Uiso
C125 C 0.81457 0.50000 0.76712 0.0000 Uiso
H126 H 0.85887 0.50000 0.77898 0.0000 Uiso
O127 O 0.40649 0.00000 0.67078 0.0000 Uiso
C128 C 0.31457 0.00000 0.76712 0.0000 Uiso
H129 H 0.35887 0.00000 0.77898 0.0000 Uiso
O130 O 0.40649 0.50000 0.17078 0.0000 Uiso
C131 C 0.31457 0.50000 0.26712 0.0000 Uiso
H132 H 0.35887 0.50000 0.27898 0.0000 Uiso
O133 O 0.09351 0.00000 0.82922 0.0000 Uiso
C134 C 0.18543 0.00000 0.73288 0.0000 Uiso
H135 H 0.14113 0.00000 0.72102 0.0000 Uiso
O136 O 0.09351 0.50000 0.32922 0.0000 Uiso
C137 C 0.18543 0.50000 0.23288 0.0000 Uiso
H138 H 0.14113 0.50000 0.22102 0.0000 Uiso
O139 O 0.59351 0.00000 0.32922 0.0000 Uiso
C140 C 0.68543 0.00000 0.23288 0.0000 Uiso
H141 H 0.64113 0.00000 0.22102 0.0000 Uiso
O142 O 0.59351 0.50000 0.82922 0.0000 Uiso
C143 C 0.68543 0.50000 0.73288 0.0000 Uiso
H144 H 0.64113 0.50000 0.72102 0.0000 Uiso
O145 O 0.90649 0.00000 0.82922 0.0000 Uiso
C146 C 0.81457 0.00000 0.73288 0.0000 Uiso
H147 H 0.85887 0.00000 0.72102 0.0000 Uiso
O148 O 0.90649 0.50000 0.32922 0.0000 Uiso
C149 C 0.81457 0.50000 0.23288 0.0000 Uiso
H150 H 0.85887 0.50000 0.22102 0.0000 Uiso
O151 O 0.40649 0.00000 0.32922 0.0000 Uiso
C152 C 0.31457 0.00000 0.23288 0.0000 Uiso
H153 H 0.35887 0.00000 0.22102 0.0000 Uiso
O154 O 0.40649 0.50000 0.82922 0.0000 Uiso
C155 C 0.31457 0.50000 0.73288 0.0000 Uiso
H156 H 0.35887 0.50000 0.72102 0.0000 Uiso
O157 O 0.09351 0.00000 0.17078 0.0000 Uiso
C158 C 0.18543 0.00000 0.26712 0.0000 Uiso
H159 H 0.14113 0.00000 0.27898 0.0000 Uiso
O160 O 0.09351 0.50000 0.67078 0.0000 Uiso
C161 C 0.18543 0.50000 0.76712 0.0000 Uiso
H162 H 0.14113 0.50000 0.77898 0.0000 Uiso
O163 O 0.59351 0.00000 0.67078 0.0000 Uiso
C164 C 0.68543 0.00000 0.76712 0.0000 Uiso
H165 H 0.64113 0.00000 0.77898 0.0000 Uiso
O166 O 0.59351 0.50000 0.17078 0.0000 Uiso
C167 C 0.68543 0.50000 0.26712 0.0000 Uiso
H168 H 0.64113 0.50000 0.27898 0.0000 Uiso
O169 O 0.90649 0.17078 0.00000 0.0000 Uiso
C170 C 0.81457 0.26712 0.00000 0.0000 Uiso
H171 H 0.85887 0.27898 0.00000 0.0000 Uiso
O172 O 0.90649 0.67078 0.50000 0.0000 Uiso
C173 C 0.81457 0.76712 0.50000 0.0000 Uiso
H174 H 0.85887 0.77898 0.50000 0.0000 Uiso
O175 O 0.40649 0.17078 0.50000 0.0000 Uiso
C176 C 0.31457 0.26712 0.50000 0.0000 Uiso
H177 H 0.35887 0.27898 0.50000 0.0000 Uiso
O178 O 0.40649 0.67078 0.00000 0.0000 Uiso
C179 C 0.31457 0.76712 0.00000 0.0000 Uiso
H180 H 0.35887 0.77898 0.00000 0.0000 Uiso
O181 O 0.09351 0.82922 0.00000 0.0000 Uiso
C182 C 0.18543 0.73288 0.00000 0.0000 Uiso
H183 H 0.14113 0.72102 0.00000 0.0000 Uiso
O184 O 0.09351 0.32922 0.50000 0.0000 Uiso
C185 C 0.18543 0.23288 0.50000 0.0000 Uiso
H186 H 0.14113 0.22102 0.50000 0.0000 Uiso
O187 O 0.59351 0.82922 0.50000 0.0000 Uiso
C188 C 0.68543 0.73288 0.50000 0.0000 Uiso
H189 H 0.64113 0.72102 0.50000 0.0000 Uiso
O190 O 0.59351 0.32922 0.00000 0.0000 Uiso
C191 C 0.68543 0.23288 0.00000 0.0000 Uiso
H192 H 0.64113 0.22102 0.00000 0.0000 Uiso
O193 O 0.90649 0.82922 0.00000 0.0000 Uiso
C194 C 0.81457 0.73288 0.00000 0.0000 Uiso
H195 H 0.85887 0.72102 0.00000 0.0000 Uiso
O196 O 0.90649 0.32922 0.50000 0.0000 Uiso
C197 C 0.81457 0.23288 0.50000 0.0000 Uiso
H198 H 0.85887 0.22102 0.50000 0.0000 Uiso
O199 O 0.40649 0.82922 0.50000 0.0000 Uiso
C200 C 0.31457 0.73288 0.50000 0.0000 Uiso
H201 H 0.35887 0.72102 0.50000 0.0000 Uiso
O202 O 0.40649 0.32922 0.00000 0.0000 Uiso
C203 C 0.31457 0.23288 0.00000 0.0000 Uiso
H204 H 0.35887 0.22102 0.00000 0.0000 Uiso
O205 O 0.09351 0.17078 0.00000 0.0000 Uiso
C206 C 0.18543 0.26712 0.00000 0.0000 Uiso
H207 H 0.14113 0.27898 0.00000 0.0000 Uiso
O208 O 0.09351 0.67078 0.50000 0.0000 Uiso
C209 C 0.18543 0.76712 0.50000 0.0000 Uiso
H210 H 0.14113 0.77898 0.50000 0.0000 Uiso
O211 O 0.59351 0.17078 0.50000 0.0000 Uiso
C212 C 0.68543 0.26712 0.50000 0.0000 Uiso
H213 H 0.64113 0.27898 0.50000 0.0000 Uiso
O214 O 0.59351 0.67078 0.00000 0.0000 Uiso
C215 C 0.68543 0.76712 0.00000 0.0000 Uiso
H216 H 0.64113 0.77898 0.00000 0.0000 Uiso
O217 O 0.17078 0.00000 0.09351 0.0000 Uiso
C218 C 0.26712 0.00000 0.18543 0.0000 Uiso
H219 H 0.27898 0.00000 0.14113 0.0000 Uiso
O220 O 0.17078 0.50000 0.59351 0.0000 Uiso
C221 C 0.26712 0.50000 0.68543 0.0000 Uiso
H222 H 0.27898 0.50000 0.64113 0.0000 Uiso
O223 O 0.67078 0.00000 0.59351 0.0000 Uiso
C224 C 0.76712 0.00000 0.68543 0.0000 Uiso
H225 H 0.77898 0.00000 0.64113 0.0000 Uiso
O226 O 0.67078 0.50000 0.09351 0.0000 Uiso
C227 C 0.76712 0.50000 0.18543 0.0000 Uiso
H228 H 0.77898 0.50000 0.14113 0.0000 Uiso
O229 O 0.82922 0.00000 0.90649 0.0000 Uiso
C230 C 0.73288 0.00000 0.81457 0.0000 Uiso
H231 H 0.72102 0.00000 0.85887 0.0000 Uiso
O232 O 0.82922 0.50000 0.40649 0.0000 Uiso
C233 C 0.73288 0.50000 0.31457 0.0000 Uiso
H234 H 0.72102 0.50000 0.35887 0.0000 Uiso
O235 O 0.32922 0.00000 0.40649 0.0000 Uiso
C236 C 0.23288 0.00000 0.31457 0.0000 Uiso
H237 H 0.22102 0.00000 0.35887 0.0000 Uiso
O238 O 0.32922 0.50000 0.90649 0.0000 Uiso
C239 C 0.23288 0.50000 0.81457 0.0000 Uiso
H240 H 0.22102 0.50000 0.85887 0.0000 Uiso
O241 O 0.82922 0.00000 0.09351 0.0000 Uiso
C242 C 0.73288 0.00000 0.18543 0.0000 Uiso
H243 H 0.72102 0.00000 0.14113 0.0000 Uiso
O244 O 0.82922 0.50000 0.59351 0.0000 Uiso
C245 C 0.73288 0.50000 0.68543 0.0000 Uiso
H246 H 0.72102 0.50000 0.64113 0.0000 Uiso
O247 O 0.32922 0.00000 0.59351 0.0000 Uiso
C248 C 0.23288 0.00000 0.68543 0.0000 Uiso
H249 H 0.22102 0.00000 0.64113 0.0000 Uiso
O250 O 0.32922 0.50000 0.09351 0.0000 Uiso
C251 C 0.23288 0.50000 0.18543 0.0000 Uiso
H252 H 0.22102 0.50000 0.14113 0.0000 Uiso
O253 O 0.17078 0.00000 0.90649 0.0000 Uiso
C254 C 0.26712 0.00000 0.81457 0.0000 Uiso
H255 H 0.27898 0.00000 0.85887 0.0000 Uiso
O256 O 0.17078 0.50000 0.40649 0.0000 Uiso
C257 C 0.26712 0.50000 0.31457 0.0000 Uiso
H258 H 0.27898 0.50000 0.35887 0.0000 Uiso
O259 O 0.67078 0.00000 0.40649 0.0000 Uiso
C260 C 0.76712 0.00000 0.31457 0.0000 Uiso
H261 H 0.77898 0.00000 0.35887 0.0000 Uiso
O262 O 0.67078 0.50000 0.90649 0.0000 Uiso
C263 C 0.76712 0.50000 0.81457 0.0000 Uiso
H264 H 0.77898 0.50000 0.85887 0.0000 Uiso
O265 O 0.00000 0.90649 0.82922 0.0000 Uiso
C266 C 0.00000 0.81457 0.73288 0.0000 Uiso
H267 H 0.00000 0.85887 0.72102 0.0000 Uiso
O268 O 0.00000 0.40649 0.32922 0.0000 Uiso
C269 C 0.00000 0.31457 0.23288 0.0000 Uiso
H270 H 0.00000 0.35887 0.22102 0.0000 Uiso
O271 O 0.50000 0.90649 0.32922 0.0000 Uiso
C272 C 0.50000 0.81457 0.23288 0.0000 Uiso
H273 H 0.50000 0.85887 0.22102 0.0000 Uiso
O274 O 0.50000 0.40649 0.82922 0.0000 Uiso
C275 C 0.50000 0.31457 0.73288 0.0000 Uiso
H276 H 0.50000 0.35887 0.72102 0.0000 Uiso
O277 O 0.00000 0.09351 0.17078 0.0000 Uiso
C278 C 0.00000 0.18543 0.26712 0.0000 Uiso
H279 H 0.00000 0.14113 0.27898 0.0000 Uiso
O280 O 0.00000 0.59351 0.67078 0.0000 Uiso
C281 C 0.00000 0.68543 0.76712 0.0000 Uiso
H282 H 0.00000 0.64113 0.77898 0.0000 Uiso
O283 O 0.50000 0.09351 0.67078 0.0000 Uiso
C284 C 0.50000 0.18543 0.76712 0.0000 Uiso
H285 H 0.50000 0.14113 0.77898 0.0000 Uiso
O286 O 0.50000 0.59351 0.17078 0.0000 Uiso
C287 C 0.50000 0.68543 0.26712 0.0000 Uiso
H288 H 0.50000 0.64113 0.27898 0.0000 Uiso
O289 O 0.00000 0.90649 0.17078 0.0000 Uiso
C290 C 0.00000 0.81457 0.26712 0.0000 Uiso
H291 H 0.00000 0.85887 0.27898 0.0000 Uiso
O292 O 0.00000 0.40649 0.67078 0.0000 Uiso
C293 C 0.00000 0.31457 0.76712 0.0000 Uiso
H294 H 0.00000 0.35887 0.77898 0.0000 Uiso
O295 O 0.50000 0.90649 0.67078 0.0000 Uiso
C296 C 0.50000 0.81457 0.76712 0.0000 Uiso
H297 H 0.50000 0.85887 0.77898 0.0000 Uiso
O298 O 0.50000 0.40649 0.17078 0.0000 Uiso
C299 C 0.50000 0.31457 0.26712 0.0000 Uiso
H300 H 0.50000 0.35887 0.27898 0.0000 Uiso
O301 O 0.00000 0.09351 0.82922 0.0000 Uiso
C302 C 0.00000 0.18543 0.73288 0.0000 Uiso
H303 H 0.00000 0.14113 0.72102 0.0000 Uiso
O304 O 0.00000 0.59351 0.32922 0.0000 Uiso
C305 C 0.00000 0.68543 0.23288 0.0000 Uiso
H306 H 0.00000 0.64113 0.22102 0.0000 Uiso
O307 O 0.50000 0.09351 0.32922 0.0000 Uiso
C308 C 0.50000 0.18543 0.23288 0.0000 Uiso
H309 H 0.50000 0.14113 0.22102 0.0000 Uiso
O310 O 0.50000 0.59351 0.82922 0.0000 Uiso
C311 C 0.50000 0.68543 0.73288 0.0000 Uiso
H312 H 0.50000 0.64113 0.72102 0.0000 Uiso
C313 C 0.15154 0.84846 0.00000 0.0000 Uiso
C314 C 0.20271 0.79729 0.00000 0.0000 Uiso
C315 C 0.15154 0.34846 0.50000 0.0000 Uiso
C316 C 0.20271 0.29729 0.50000 0.0000 Uiso
C317 C 0.65154 0.84846 0.50000 0.0000 Uiso
C318 C 0.70271 0.79729 0.50000 0.0000 Uiso
C319 C 0.65154 0.34846 0.00000 0.0000 Uiso
C320 C 0.70271 0.29729 0.00000 0.0000 Uiso
C321 C 0.84846 0.15154 0.00000 0.0000 Uiso
C322 C 0.79729 0.20271 0.00000 0.0000 Uiso
C323 C 0.84846 0.65154 0.50000 0.0000 Uiso
C324 C 0.79729 0.70271 0.50000 0.0000 Uiso
C325 C 0.34846 0.15154 0.50000 0.0000 Uiso
C326 C 0.29729 0.20271 0.50000 0.0000 Uiso
C327 C 0.34846 0.65154 0.00000 0.0000 Uiso
C328 C 0.29729 0.70271 0.00000 0.0000 Uiso
C329 C 0.84846 0.84846 0.00000 0.0000 Uiso
C330 C 0.79729 0.79729 0.00000 0.0000 Uiso
C331 C 0.84846 0.34846 0.50000 0.0000 Uiso
C332 C 0.79729 0.29729 0.50000 0.0000 Uiso
C333 C 0.34846 0.84846 0.50000 0.0000 Uiso
C334 C 0.29729 0.79729 0.50000 0.0000 Uiso
C335 C 0.34846 0.34846 0.00000 0.0000 Uiso
C336 C 0.29729 0.29729 0.00000 0.0000 Uiso
C337 C 0.15154 0.15154 0.00000 0.0000 Uiso
C338 C 0.20271 0.20271 0.00000 0.0000 Uiso
C339 C 0.15154 0.65154 0.50000 0.0000 Uiso
C340 C 0.20271 0.70271 0.50000 0.0000 Uiso
C341 C 0.65154 0.15154 0.50000 0.0000 Uiso
C342 C 0.70271 0.20271 0.50000 0.0000 Uiso
C343 C 0.65154 0.65154 0.00000 0.0000 Uiso
C344 C 0.70271 0.70271 0.00000 0.0000 Uiso
C345 C 0.00000 0.15154 0.84846 0.0000 Uiso
C346 C 0.00000 0.20271 0.79729 0.0000 Uiso
C347 C 0.00000 0.65154 0.34846 0.0000 Uiso
C348 C 0.00000 0.70271 0.29729 0.0000 Uiso
C349 C 0.50000 0.15154 0.34846 0.0000 Uiso
C350 C 0.50000 0.20271 0.29729 0.0000 Uiso
C351 C 0.50000 0.65154 0.84846 0.0000 Uiso
C352 C 0.50000 0.70271 0.79729 0.0000 Uiso
C353 C 0.00000 0.84846 0.15154 0.0000 Uiso
C354 C 0.00000 0.79729 0.20271 0.0000 Uiso
C355 C 0.00000 0.34846 0.65154 0.0000 Uiso
C356 C 0.00000 0.29729 0.70271 0.0000 Uiso
C357 C 0.50000 0.84846 0.65154 0.0000 Uiso
C358 C 0.50000 0.79729 0.70271 0.0000 Uiso
C359 C 0.50000 0.34846 0.15154 0.0000 Uiso
C360 C 0.50000 0.29729 0.20271 0.0000 Uiso
C361 C 0.00000 0.84846 0.84846 0.0000 Uiso
C362 C 0.00000 0.79729 0.79729 0.0000 Uiso
C363 C 0.00000 0.34846 0.34846 0.0000 Uiso
C364 C 0.00000 0.29729 0.29729 0.0000 Uiso
C365 C 0.50000 0.84846 0.34846 0.0000 Uiso
C366 C 0.50000 0.79729 0.29729 0.0000 Uiso
C367 C 0.50000 0.34846 0.84846 0.0000 Uiso
C368 C 0.50000 0.29729 0.79729 0.0000 Uiso
C369 C 0.00000 0.15154 0.15154 0.0000 Uiso
C370 C 0.00000 0.20271 0.20271 0.0000 Uiso
C371 C 0.00000 0.65154 0.65154 0.0000 Uiso
C372 C 0.00000 0.70271 0.70271 0.0000 Uiso
C373 C 0.50000 0.15154 0.65154 0.0000 Uiso
C374 C 0.50000 0.20271 0.70271 0.0000 Uiso
C375 C 0.50000 0.65154 0.15154 0.0000 Uiso
C376 C 0.50000 0.70271 0.20271 0.0000 Uiso
C377 C 0.84846 0.00000 0.15154 0.0000 Uiso
C378 C 0.79729 0.00000 0.20271 0.0000 Uiso
C379 C 0.84846 0.50000 0.65154 0.0000 Uiso
C380 C 0.79729 0.50000 0.70271 0.0000 Uiso
C381 C 0.34846 0.00000 0.65154 0.0000 Uiso
C382 C 0.29729 0.00000 0.70271 0.0000 Uiso
C383 C 0.34846 0.50000 0.15154 0.0000 Uiso
C384 C 0.29729 0.50000 0.20271 0.0000 Uiso
C385 C 0.15154 0.00000 0.84846 0.0000 Uiso
C386 C 0.20271 0.00000 0.79729 0.0000 Uiso
C387 C 0.15154 0.50000 0.34846 0.0000 Uiso
C388 C 0.20271 0.50000 0.29729 0.0000 Uiso
C389 C 0.65154 0.00000 0.34846 0.0000 Uiso
C390 C 0.70271 0.00000 0.29729 0.0000 Uiso
C391 C 0.65154 0.50000 0.84846 0.0000 Uiso
C392 C 0.70271 0.50000 0.79729 0.0000 Uiso
C393 C 0.84846 0.00000 0.84846 0.0000 Uiso
C394 C 0.79729 0.00000 0.79729 0.0000 Uiso
C395 C 0.84846 0.50000 0.34846 0.0000 Uiso
C396 C 0.79729 0.50000 0.29729 0.0000 Uiso
C397 C 0.34846 0.00000 0.34846 0.0000 Uiso
C398 C 0.29729 0.00000 0.29729 0.0000 Uiso
C399 C 0.34846 0.50000 0.84846 0.0000 Uiso
C400 C 0.29729 0.50000 0.79729 0.0000 Uiso
C401 C 0.15154 0.00000 0.15154 0.0000 Uiso
C402 C 0.20271 0.00000 0.20271 0.0000 Uiso
C403 C 0.15154 0.50000 0.65154 0.0000 Uiso
C404 C 0.20271 0.50000 0.70271 0.0000 Uiso
C405 C 0.65154 0.00000 0.65154 0.0000 Uiso
C406 C 0.70271 0.00000 0.70271 0.0000 Uiso
C407 C 0.65154 0.50000 0.15154 0.0000 Uiso
C408 C 0.70271 0.50000 0.20271 0.0000 Uiso
O410 O 0.06569 0.06569 0.06569 0.0000 Uiso
H411 H 0.08840 0.08840 0.08840 0.0000 Uiso
O413 O 0.06569 0.56569 0.56569 0.0000 Uiso
H414 H 0.08840 0.58840 0.58840 0.0000 Uiso
O416 O 0.56569 0.06569 0.56569 0.0000 Uiso
H417 H 0.58840 0.08840 0.58840 0.0000 Uiso
O419 O 0.56569 0.56569 0.06569 0.0000 Uiso
H420 H 0.58840 0.58840 0.08840 0.0000 Uiso
O425 O 0.93431 0.43431 0.56569 0.0000 Uiso
H426 H 0.91160 0.41160 0.58840 0.0000 Uiso
O428 O 0.43431 0.93431 0.56569 0.0000 Uiso
H429 H 0.41160 0.91160 0.58840 0.0000 Uiso
O431 O 0.43431 0.43431 0.06569 0.0000 Uiso
H432 H 0.41160 0.41160 0.08840 0.0000 Uiso
O437 O 0.93431 0.56569 0.43431 0.0000 Uiso
H438 H 0.91160 0.58840 0.41160 0.0000 Uiso
O440 O 0.43431 0.06569 0.43431 0.0000 Uiso
H441 H 0.41160 0.08840 0.41160 0.0000 Uiso
O443 O 0.43431 0.56569 0.93431 0.0000 Uiso
H444 H 0.41160 0.58840 0.91160 0.0000 Uiso
O449 O 0.06569 0.43431 0.43431 0.0000 Uiso
H450 H 0.08840 0.41160 0.41160 0.0000 Uiso
O452 O 0.56569 0.93431 0.43431 0.0000 Uiso
H453 H 0.58840 0.91160 0.41160 0.0000 Uiso
O455 O 0.56569 0.43431 0.93431 0.0000 Uiso
H456 H 0.58840 0.41160 0.91160 0.0000 Uiso
O458 O 0.06569 0.06569 0.93431 0.0000 Uiso
H459 H 0.08840 0.08840 0.91160 0.0000 Uiso
O461 O 0.06569 0.56569 0.43431 0.0000 Uiso
H462 H 0.08840 0.58840 0.41160 0.0000 Uiso
O464 O 0.56569 0.06569 0.43431 0.0000 Uiso
H465 H 0.58840 0.08840 0.41160 0.0000 Uiso
O467 O 0.56569 0.56569 0.93431 0.0000 Uiso
H468 H 0.58840 0.58840 0.91160 0.0000 Uiso
O473 O 0.93431 0.43431 0.43431 0.0000 Uiso
H474 H 0.91160 0.41160 0.41160 0.0000 Uiso
O476 O 0.43431 0.93431 0.43431 0.0000 Uiso
H477 H 0.41160 0.91160 0.41160 0.0000 Uiso
O479 O 0.43431 0.43431 0.93431 0.0000 Uiso
H480 H 0.41160 0.41160 0.91160 0.0000 Uiso
O482 O 0.06569 0.93431 0.06569 0.0000 Uiso
H483 H 0.08840 0.91160 0.08840 0.0000 Uiso
O485 O 0.06569 0.43431 0.56569 0.0000 Uiso
H486 H 0.08840 0.41160 0.58840 0.0000 Uiso
O488 O 0.56569 0.93431 0.56569 0.0000 Uiso
H489 H 0.58840 0.91160 0.58840 0.0000 Uiso
O491 O 0.56569 0.43431 0.06569 0.0000 Uiso
H492 H 0.58840 0.41160 0.08840 0.0000 Uiso
O494 O 0.93431 0.06569 0.06569 0.0000 Uiso
H495 H 0.91160 0.08840 0.08840 0.0000 Uiso
O497 O 0.93431 0.56569 0.56569 0.0000 Uiso
H498 H 0.91160 0.58840 0.58840 0.0000 Uiso
O500 O 0.43431 0.06569 0.56569 0.0000 Uiso
H501 H 0.41160 0.08840 0.58840 0.0000 Uiso
O503 O 0.43431 0.56569 0.06569 0.0000 Uiso
H504 H 0.41160 0.58840 0.08840 0.0000 Uiso
O422 O 0.93431 -0.06569 0.06569 0.0000 Uiso
H423 H 0.91160 -0.08840 0.08840 0.0000 Uiso
O434 O 0.93431 0.06569 -0.06569 0.0000 Uiso
H435 H 0.91160 0.08840 -0.08840 0.0000 Uiso
O446 O 0.06569 -0.06569 -0.06569 0.0000 Uiso
H447 H 0.08840 -0.08840 -0.08840 0.0000 Uiso
O470 O 0.93431 -0.06569 -0.06569 0.0000 Uiso
H471 H 0.91160 -0.08840 -0.08840 0.0000 Uiso
Zr1 Zr 0.11941 0.00000 1.00000 0.0000 Uiso
Zr1 Zr 0.11941 1.00000 0.00000 0.0000 Uiso
Zr3 Zr 0.61941 1.00000 0.50000 0.0000 Uiso
Zr4 Zr 0.61941 0.50000 1.00000 0.0000 Uiso
Zr5 Zr -0.11941 0.00000 0.00000 0.0000 Uiso
Zr5 Zr -0.11941 0.00000 1.00000 0.0000 Uiso
Zr5 Zr -0.11941 1.00000 0.00000 0.0000 Uiso
Zr5 Zr 0.88059 0.00000 1.00000 0.0000 Uiso
Zr5 Zr 0.88059 1.00000 0.00000 0.0000 Uiso
Zr6 Zr -0.11941 0.50000 0.50000 0.0000 Uiso
Zr7 Zr 0.38059 1.00000 0.50000 0.0000 Uiso
Zr8 Zr 0.38059 0.50000 1.00000 0.0000 Uiso
Zr9 Zr 0.00000 0.11941 1.00000 0.0000 Uiso
Zr9 Zr 1.00000 0.11941 0.00000 0.0000 Uiso
Zr10 Zr 1.00000 0.61941 0.50000 0.0000 Uiso
Zr12 Zr 0.50000 0.61941 1.00000 0.0000 Uiso
Zr13 Zr 0.00000 -0.11941 0.00000 0.0000 Uiso
Zr13 Zr 0.00000 -0.11941 1.00000 0.0000 Uiso
Zr13 Zr 0.00000 0.88059 1.00000 0.0000 Uiso
Zr13 Zr 1.00000 -0.11941 0.00000 0.0000 Uiso
Zr13 Zr 1.00000 0.88059 0.00000 0.0000 Uiso
Zr14 Zr 1.00000 0.38059 0.50000 0.0000 Uiso
Zr15 Zr 0.50000 -0.11941 0.50000 0.0000 Uiso
Zr16 Zr 0.50000 0.38059 1.00000 0.0000 Uiso
Zr17 Zr 0.00000 1.00000 0.11941 0.0000 Uiso
Zr17 Zr 1.00000 0.00000 0.11941 0.0000 Uiso
Zr18 Zr 1.00000 0.50000 0.61941 0.0000 Uiso
Zr19 Zr 0.50000 1.00000 0.61941 0.0000 Uiso
Zr21 Zr 0.00000 0.00000 -0.11941 0.0000 Uiso
Zr21 Zr 0.00000 1.00000 -0.11941 0.0000 Uiso
Zr21 Zr 0.00000 1.00000 0.88059 0.0000 Uiso
Zr21 Zr 1.00000 0.00000 -0.11941 0.0000 Uiso
Zr21 Zr 1.00000 0.00000 0.88059 0.0000 Uiso
Zr22 Zr 1.00000 0.50000 0.38059 0.0000 Uiso
Zr23 Zr 0.50000 1.00000 0.38059 0.0000 Uiso
Zr24 Zr 0.50000 0.50000 -0.11941 0.0000 Uiso
O25 O 0.17078 -0.09351 0.00000 0.0000 Uiso
O31 O 0.67078 -0.09351 0.50000 0.0000 Uiso
O49 O 0.82922 -0.09351 0.00000 0.0000 Uiso
O55 O 0.32922 -0.09351 0.50000 0.0000 Uiso
O73 O 0.00000 0.17078 -0.09351 0.0000 Uiso
O82 O 0.50000 0.67078 -0.09351 0.0000 Uiso
O97 O 0.00000 0.82922 -0.09351 0.0000 Uiso
O106 O 0.50000 0.32922 -0.09351 0.0000 Uiso
O121 O -0.09351 0.00000 0.17078 0.0000 Uiso
O124 O -0.09351 0.50000 0.67078 0.0000 Uiso
O145 O -0.09351 0.00000 0.82922 0.0000 Uiso
O148 O -0.09351 0.50000 0.32922 0.0000 Uiso
O169 O -0.09351 0.17078 0.00000 0.0000 Uiso
O172 O -0.09351 0.67078 0.50000 0.0000 Uiso
O193 O -0.09351 0.82922 0.00000 0.0000 Uiso
O196 O -0.09351 0.32922 0.50000 0.0000 Uiso
O229 O 0.82922 0.00000 -0.09351 0.0000 Uiso
O238 O 0.32922 0.50000 -0.09351 0.0000 Uiso
O253 O 0.17078 0.00000 -0.09351 0.0000 Uiso
O262 O 0.67078 0.50000 -0.09351 0.0000 Uiso
O265 O 0.00000 -0.09351 0.82922 0.0000 Uiso
O271 O 0.50000 -0.09351 0.32922 0.0000 Uiso
O289 O 0.00000 -0.09351 0.17078 0.0000 Uiso
O295 O 0.50000 -0.09351 0.67078 0.0000 Uiso
O425 O -0.06569 0.43431 0.56569 0.0000 Uiso
O428 O 0.43431 -0.06569 0.56569 0.0000 Uiso
O437 O -0.06569 0.56569 0.43431 0.0000 Uiso
O443 O 0.43431 0.56569 -0.06569 0.0000 Uiso
O452 O 0.56569 -0.06569 0.43431 0.0000 Uiso
O455 O 0.56569 0.43431 -0.06569 0.0000 Uiso
O458 O 0.06569 0.06569 -0.06569 0.0000 Uiso
O467 O 0.56569 0.56569 -0.06569 0.0000 Uiso
O473 O -0.06569 0.43431 0.43431 0.0000 Uiso
O476 O 0.43431 -0.06569 0.43431 0.0000 Uiso
O479 O 0.43431 0.43431 -0.06569 0.0000 Uiso
O482 O 0.06569 -0.06569 0.06569 0.0000 Uiso
O488 O 0.56569 -0.06569 0.56569 0.0000 Uiso
O494 O -0.06569 0.06569 0.06569 0.0000 Uiso
O497 O -0.06569 0.56569 0.56569 0.0000 Uiso
O422 O -0.06569 -0.06569 0.06569 0.0000 Uiso
O422 O -0.06569 0.93431 0.06569 0.0000 Uiso
O434 O -0.06569 0.06569 -0.06569 0.0000 Uiso
O434 O -0.06569 0.06569 0.93431 0.0000 Uiso
O446 O 0.06569 -0.06569 0.93431 0.0000 Uiso
O446 O 0.06569 0.93431 -0.06569 0.0000 Uiso
O470 O -0.06569 -0.06569 0.93431 0.0000 Uiso
O470 O -0.06569 0.93431 -0.06569 0.0000 Uiso

#END
