data_UKESIO

_audit_creation_method RASPA-1.0
_audit_creation_date 2020-11-2
_audit_author_name 'Rocio Bueno-Perez'

_cell_length_a    39.067
_cell_length_b    39.067
_cell_length_c    39.067
_cell_angle_alpha 90
_cell_angle_beta  90
_cell_angle_gamma 90
_cell_volume      59625.2

_symmetry_cell_setting          triclinic
_symmetry_space_group_name_Hall 'P 1'
_symmetry_space_group_name_H-M  'P 1'
_symmetry_Int_Tables_number     1

_symmetry_equiv_pos_as_xyz 'x,y,z'

loop_
_atom_site_label
_atom_site_type_symbol
_atom_site_fract_x
_atom_site_fract_y
_atom_site_fract_z
_atom_site_charge
Br1      Br     0.674000000000     0.473200000000     0.401400000000     0          
O2       O      0.628560000000     0.576100000000     0.533570000000     0          
C3       C      0.627900000000     0.526500000000     0.484800000000     0          
H4       H      0.634100000000     0.549300000000     0.479200000000     0          
C5       C      0.627200000000     0.501800000000     0.460000000000     0          
H6       H      0.632000000000     0.507500000000     0.436900000000     0          
C7       C      0.640600000000     0.438800000000     0.411400000000     0          
C8       C      0.639500000000     0.411000000000     0.387000000000     0          
C9       C      0.614100000000     0.411700000000     0.363500000000     0          
Br10     Br     0.674000000000     0.973200000000     0.901400000000     0          
O11      O      0.628560000000     0.076100000000     0.033570000000     0          
C12      C      0.627900000000     0.026500000000     0.984800000000     0          
H13      H      0.634100000000     0.049300000000     0.979200000000     0          
C14      C      0.627200000000     0.001800000000     0.960000000000     0          
H15      H      0.632000000000     0.007500000000     0.936900000000     0          
C16      C      0.640600000000     0.938800000000     0.911400000000     0          
C17      C      0.639500000000     0.911000000000     0.887000000000     0          
C18      C      0.614100000000     0.911700000000     0.863500000000     0          
Br19     Br     0.174000000000     0.473200000000     0.901400000000     0          
O20      O      0.128560000000     0.576100000000     0.033570000000     0          
C21      C      0.127900000000     0.526500000000     0.984800000000     0          
H22      H      0.134100000000     0.549300000000     0.979200000000     0          
C23      C      0.127200000000     0.501800000000     0.960000000000     0          
H24      H      0.132000000000     0.507500000000     0.936900000000     0          
C25      C      0.140600000000     0.438800000000     0.911400000000     0          
C26      C      0.139500000000     0.411000000000     0.887000000000     0          
C27      C      0.114100000000     0.411700000000     0.863500000000     0          
Br28     Br     0.174000000000     0.973200000000     0.401400000000     0          
O29      O      0.128560000000     0.076100000000     0.533570000000     0          
C30      C      0.127900000000     0.026500000000     0.484800000000     0          
H31      H      0.134100000000     0.049300000000     0.479200000000     0          
C32      C      0.127200000000     0.001800000000     0.460000000000     0          
H33      H      0.132000000000     0.007500000000     0.436900000000     0          
C34      C      0.140600000000     0.938800000000     0.411400000000     0          
C35      C      0.139500000000     0.911000000000     0.387000000000     0          
C36      C      0.114100000000     0.911700000000     0.363500000000     0          
O37      O      0.121440000000     0.673900000000     0.033570000000     0          
C38      C      0.122100000000     0.723500000000     0.984800000000     0          
H39      H      0.115900000000     0.700700000000     0.979200000000     0          
C40      C      0.122800000000     0.748200000000     0.960000000000     0          
H41      H      0.118000000000     0.742500000000     0.936900000000     0          
Br42     Br     0.162800000000     0.811100000000     0.914300000000     0          
O43      O      0.121440000000     0.173900000000     0.533570000000     0          
C44      C      0.122100000000     0.223500000000     0.484800000000     0          
H45      H      0.115900000000     0.200700000000     0.479200000000     0          
C46      C      0.122800000000     0.248200000000     0.460000000000     0          
H47      H      0.118000000000     0.242500000000     0.436900000000     0          
Br48     Br     0.162800000000     0.311100000000     0.414300000000     0          
O49      O      0.621440000000     0.673900000000     0.533570000000     0          
C50      C      0.622100000000     0.723500000000     0.484800000000     0          
H51      H      0.615900000000     0.700700000000     0.479200000000     0          
C52      C      0.622800000000     0.748200000000     0.460000000000     0          
H53      H      0.618000000000     0.742500000000     0.436900000000     0          
Br54     Br     0.662800000000     0.811100000000     0.414300000000     0          
O55      O      0.621440000000     0.173900000000     0.033570000000     0          
C56      C      0.622100000000     0.223500000000     0.984800000000     0          
H57      H      0.615900000000     0.200700000000     0.979200000000     0          
C58      C      0.622800000000     0.248200000000     0.960000000000     0          
H59      H      0.618000000000     0.242500000000     0.936900000000     0          
Br60     Br     0.662800000000     0.311100000000     0.914300000000     0          
Br61     Br     0.576000000000     0.973200000000     0.348600000000     0          
O62      O      0.621440000000     0.076100000000     0.216430000000     0          
C63      C      0.622100000000     0.026500000000     0.265200000000     0          
H64      H      0.615900000000     0.049300000000     0.270800000000     0          
C65      C      0.622800000000     0.001800000000     0.290000000000     0          
H66      H      0.618000000000     0.007500000000     0.313100000000     0          
C67      C      0.609400000000     0.938800000000     0.338600000000     0          
C68      C      0.610500000000     0.911000000000     0.363000000000     0          
C69      C      0.635900000000     0.911700000000     0.386500000000     0          
Br70     Br     0.576000000000     0.473200000000     0.848600000000     0          
O71      O      0.621440000000     0.576100000000     0.716430000000     0          
C72      C      0.622100000000     0.526500000000     0.765200000000     0          
H73      H      0.615900000000     0.549300000000     0.770800000000     0          
C74      C      0.622800000000     0.501800000000     0.790000000000     0          
H75      H      0.618000000000     0.507500000000     0.813100000000     0          
C76      C      0.609400000000     0.438800000000     0.838600000000     0          
C77      C      0.610500000000     0.411000000000     0.863000000000     0          
C78      C      0.635900000000     0.411700000000     0.886500000000     0          
Br79     Br     0.076000000000     0.973200000000     0.848600000000     0          
O80      O      0.121440000000     0.076100000000     0.716430000000     0          
C81      C      0.122100000000     0.026500000000     0.765200000000     0          
H82      H      0.115900000000     0.049300000000     0.770800000000     0          
C83      C      0.122800000000     0.001800000000     0.790000000000     0          
H84      H      0.118000000000     0.007500000000     0.813100000000     0          
C85      C      0.109400000000     0.938800000000     0.838600000000     0          
C86      C      0.110500000000     0.911000000000     0.863000000000     0          
C87      C      0.135900000000     0.911700000000     0.886500000000     0          
Br88     Br     0.076000000000     0.473200000000     0.348600000000     0          
O89      O      0.121440000000     0.576100000000     0.216430000000     0          
C90      C      0.122100000000     0.526500000000     0.265200000000     0          
H91      H      0.115900000000     0.549300000000     0.270800000000     0          
C92      C      0.122800000000     0.501800000000     0.290000000000     0          
H93      H      0.118000000000     0.507500000000     0.313100000000     0          
C94      C      0.109400000000     0.438800000000     0.338600000000     0          
C95      C      0.110500000000     0.411000000000     0.363000000000     0          
C96      C      0.135900000000     0.411700000000     0.386500000000     0          
O97      O      0.128560000000     0.173900000000     0.716430000000     0          
C98      C      0.127900000000     0.223500000000     0.765200000000     0          
H99      H      0.134100000000     0.200700000000     0.770800000000     0          
C100     C      0.127200000000     0.248200000000     0.790000000000     0          
H101     H      0.132000000000     0.242500000000     0.813100000000     0          
Br102    Br     0.087200000000     0.311100000000     0.835700000000     0          
O103     O      0.128560000000     0.673900000000     0.216430000000     0          
C104     C      0.127900000000     0.723500000000     0.265200000000     0          
H105     H      0.134100000000     0.700700000000     0.270800000000     0          
C106     C      0.127200000000     0.748200000000     0.290000000000     0          
H107     H      0.132000000000     0.742500000000     0.313100000000     0          
Br108    Br     0.087200000000     0.811100000000     0.335700000000     0          
O109     O      0.628560000000     0.173900000000     0.216430000000     0          
C110     C      0.627900000000     0.223500000000     0.265200000000     0          
H111     H      0.634100000000     0.200700000000     0.270800000000     0          
C112     C      0.627200000000     0.248200000000     0.290000000000     0          
H113     H      0.632000000000     0.242500000000     0.313100000000     0          
Br114    Br     0.587200000000     0.311100000000     0.335700000000     0          
O115     O      0.628560000000     0.673900000000     0.716430000000     0          
C116     C      0.627900000000     0.723500000000     0.765200000000     0          
H117     H      0.634100000000     0.700700000000     0.770800000000     0          
C118     C      0.627200000000     0.748200000000     0.790000000000     0          
H119     H      0.632000000000     0.742500000000     0.813100000000     0          
Br120    Br     0.587200000000     0.811100000000     0.835700000000     0          
O121     O      0.533570000000     0.628560000000     0.576100000000     0          
C122     C      0.484800000000     0.627900000000     0.526500000000     0          
H123     H      0.479200000000     0.634100000000     0.549300000000     0          
C124     C      0.460000000000     0.627200000000     0.501800000000     0          
H125     H      0.436900000000     0.632000000000     0.507500000000     0          
Br126    Br     0.414300000000     0.587200000000     0.438900000000     0          
O127     O      0.533570000000     0.128560000000     0.076100000000     0          
C128     C      0.484800000000     0.127900000000     0.026500000000     0          
H129     H      0.479200000000     0.134100000000     0.049300000000     0          
C130     C      0.460000000000     0.127200000000     0.001800000000     0          
H131     H      0.436900000000     0.132000000000     0.007500000000     0          
Br132    Br     0.414300000000     0.087200000000     0.938900000000     0          
O133     O      0.033570000000     0.628560000000     0.076100000000     0          
C134     C      0.984800000000     0.627900000000     0.026500000000     0          
H135     H      0.979200000000     0.634100000000     0.049300000000     0          
C136     C      0.960000000000     0.627200000000     0.001800000000     0          
H137     H      0.936900000000     0.632000000000     0.007500000000     0          
Br138    Br     0.914300000000     0.587200000000     0.938900000000     0          
O139     O      0.033570000000     0.128560000000     0.576100000000     0          
C140     C      0.984800000000     0.127900000000     0.526500000000     0          
H141     H      0.979200000000     0.134100000000     0.549300000000     0          
C142     C      0.960000000000     0.127200000000     0.501800000000     0          
H143     H      0.936900000000     0.132000000000     0.507500000000     0          
Br144    Br     0.914300000000     0.087200000000     0.438900000000     0          
O145     O      0.033570000000     0.121440000000     0.673900000000     0          
C146     C      0.984800000000     0.122100000000     0.723500000000     0          
H147     H      0.979200000000     0.115900000000     0.700700000000     0          
C148     C      0.960000000000     0.122800000000     0.748200000000     0          
H149     H      0.936900000000     0.118000000000     0.742500000000     0          
Br150    Br     0.914300000000     0.162800000000     0.811100000000     0          
O151     O      0.033570000000     0.621440000000     0.173900000000     0          
C152     C      0.984800000000     0.622100000000     0.223500000000     0          
H153     H      0.979200000000     0.615900000000     0.200700000000     0          
C154     C      0.960000000000     0.622800000000     0.248200000000     0          
H155     H      0.936900000000     0.618000000000     0.242500000000     0          
Br156    Br     0.914300000000     0.662800000000     0.311100000000     0          
O157     O      0.533570000000     0.121440000000     0.173900000000     0          
C158     C      0.484800000000     0.122100000000     0.223500000000     0          
H159     H      0.479200000000     0.115900000000     0.200700000000     0          
C160     C      0.460000000000     0.122800000000     0.248200000000     0          
H161     H      0.436900000000     0.118000000000     0.242500000000     0          
O162     O      0.533570000000     0.621440000000     0.673900000000     0          
C163     C      0.484800000000     0.622100000000     0.723500000000     0          
H164     H      0.479200000000     0.615900000000     0.700700000000     0          
C165     C      0.460000000000     0.622800000000     0.748200000000     0          
H166     H      0.436900000000     0.618000000000     0.742500000000     0          
Br167    Br     0.348600000000     0.576000000000     0.973200000000     0          
O168     O      0.216430000000     0.621440000000     0.076100000000     0          
C169     C      0.265200000000     0.622100000000     0.026500000000     0          
H170     H      0.270800000000     0.615900000000     0.049300000000     0          
C171     C      0.290000000000     0.622800000000     0.001800000000     0          
H172     H      0.313100000000     0.618000000000     0.007500000000     0          
C173     C      0.338600000000     0.609400000000     0.938800000000     0          
C174     C      0.363000000000     0.610500000000     0.911000000000     0          
C175     C      0.386500000000     0.635900000000     0.911700000000     0          
Br176    Br     0.335700000000     0.662800000000     0.938900000000     0          
Br177    Br     0.348600000000     0.076000000000     0.473200000000     0          
O178     O      0.216430000000     0.121440000000     0.576100000000     0          
C179     C      0.265200000000     0.122100000000     0.526500000000     0          
H180     H      0.270800000000     0.115900000000     0.549300000000     0          
C181     C      0.290000000000     0.122800000000     0.501800000000     0          
H182     H      0.313100000000     0.118000000000     0.507500000000     0          
C183     C      0.338600000000     0.109400000000     0.438800000000     0          
C184     C      0.363000000000     0.110500000000     0.411000000000     0          
C185     C      0.386500000000     0.135900000000     0.411700000000     0          
Br186    Br     0.335700000000     0.162800000000     0.438900000000     0          
Br187    Br     0.848600000000     0.576000000000     0.473200000000     0          
O188     O      0.716430000000     0.621440000000     0.576100000000     0          
C189     C      0.765200000000     0.622100000000     0.526500000000     0          
H190     H      0.770800000000     0.615900000000     0.549300000000     0          
C191     C      0.790000000000     0.622800000000     0.501800000000     0          
H192     H      0.813100000000     0.618000000000     0.507500000000     0          
C193     C      0.838600000000     0.609400000000     0.438800000000     0          
C194     C      0.863000000000     0.610500000000     0.411000000000     0          
C195     C      0.886500000000     0.635900000000     0.411700000000     0          
Br196    Br     0.848600000000     0.076000000000     0.973200000000     0          
O197     O      0.716430000000     0.121440000000     0.076100000000     0          
C198     C      0.765200000000     0.122100000000     0.026500000000     0          
H199     H      0.770800000000     0.115900000000     0.049300000000     0          
C200     C      0.790000000000     0.122800000000     0.001800000000     0          
H201     H      0.813100000000     0.118000000000     0.007500000000     0          
C202     C      0.838600000000     0.109400000000     0.938800000000     0          
C203     C      0.863000000000     0.110500000000     0.911000000000     0          
C204     C      0.886500000000     0.135900000000     0.911700000000     0          
Br205    Br     0.848600000000     0.174000000000     0.276800000000     0          
O206     O      0.716430000000     0.128560000000     0.173900000000     0          
C207     C      0.765200000000     0.127900000000     0.223500000000     0          
H208     H      0.770800000000     0.134100000000     0.200700000000     0          
C209     C      0.790000000000     0.127200000000     0.248200000000     0          
H210     H      0.813100000000     0.132000000000     0.242500000000     0          
C211     C      0.838600000000     0.140600000000     0.311200000000     0          
C212     C      0.863000000000     0.139500000000     0.339000000000     0          
C213     C      0.886500000000     0.114100000000     0.338300000000     0          
Br214    Br     0.848600000000     0.674000000000     0.776800000000     0          
O215     O      0.716430000000     0.628560000000     0.673900000000     0          
C216     C      0.765200000000     0.627900000000     0.723500000000     0          
H217     H      0.770800000000     0.634100000000     0.700700000000     0          
C218     C      0.790000000000     0.627200000000     0.748200000000     0          
H219     H      0.813100000000     0.632000000000     0.742500000000     0          
C220     C      0.838600000000     0.640600000000     0.811200000000     0          
C221     C      0.863000000000     0.639500000000     0.839000000000     0          
C222     C      0.886500000000     0.614100000000     0.838300000000     0          
Br223    Br     0.835700000000     0.587200000000     0.811100000000     0          
Br224    Br     0.348600000000     0.174000000000     0.776800000000     0          
O225     O      0.216430000000     0.128560000000     0.673900000000     0          
C226     C      0.265200000000     0.127900000000     0.723500000000     0          
H227     H      0.270800000000     0.134100000000     0.700700000000     0          
C228     C      0.290000000000     0.127200000000     0.748200000000     0          
H229     H      0.313100000000     0.132000000000     0.742500000000     0          
C230     C      0.338600000000     0.140600000000     0.811200000000     0          
C231     C      0.363000000000     0.139500000000     0.839000000000     0          
C232     C      0.386500000000     0.114100000000     0.838300000000     0          
Br233    Br     0.348600000000     0.674000000000     0.276800000000     0          
O234     O      0.216430000000     0.628560000000     0.173900000000     0          
C235     C      0.265200000000     0.627900000000     0.223500000000     0          
H236     H      0.270800000000     0.634100000000     0.200700000000     0          
C237     C      0.290000000000     0.627200000000     0.248200000000     0          
H238     H      0.313100000000     0.632000000000     0.242500000000     0          
C239     C      0.338600000000     0.640600000000     0.311200000000     0          
C240     C      0.363000000000     0.639500000000     0.339000000000     0          
C241     C      0.386500000000     0.614100000000     0.338300000000     0          
O242     O      0.576100000000     0.533570000000     0.628560000000     0          
C243     C      0.526500000000     0.484800000000     0.627900000000     0          
H244     H      0.549300000000     0.479200000000     0.634100000000     0          
C245     C      0.501800000000     0.460000000000     0.627200000000     0          
H246     H      0.507500000000     0.436900000000     0.632000000000     0          
Br247    Br     0.438900000000     0.414300000000     0.587200000000     0          
O248     O      0.576100000000     0.033570000000     0.128560000000     0          
C249     C      0.526500000000     0.984800000000     0.127900000000     0          
H250     H      0.549300000000     0.979200000000     0.134100000000     0          
C251     C      0.501800000000     0.960000000000     0.127200000000     0          
H252     H      0.507500000000     0.936900000000     0.132000000000     0          
Br253    Br     0.438900000000     0.914300000000     0.087200000000     0          
O254     O      0.076100000000     0.533570000000     0.128560000000     0          
C255     C      0.026500000000     0.484800000000     0.127900000000     0          
H256     H      0.049300000000     0.479200000000     0.134100000000     0          
C257     C      0.001800000000     0.460000000000     0.127200000000     0          
H258     H      0.007500000000     0.436900000000     0.132000000000     0          
Br259    Br     0.938900000000     0.414300000000     0.087200000000     0          
Br260    Br     0.973200000000     0.901400000000     0.674000000000     0          
O261     O      0.076100000000     0.033570000000     0.628560000000     0          
C262     C      0.026500000000     0.984800000000     0.627900000000     0          
H263     H      0.049300000000     0.979200000000     0.634100000000     0          
C264     C      0.001800000000     0.960000000000     0.627200000000     0          
H265     H      0.007500000000     0.936900000000     0.632000000000     0          
C266     C      0.938800000000     0.911400000000     0.640600000000     0          
C267     C      0.911000000000     0.887000000000     0.639500000000     0          
C268     C      0.911700000000     0.863500000000     0.614100000000     0          
O269     O      0.673900000000     0.033570000000     0.121440000000     0          
C270     C      0.723500000000     0.984800000000     0.122100000000     0          
H271     H      0.700700000000     0.979200000000     0.115900000000     0          
C272     C      0.748200000000     0.960000000000     0.122800000000     0          
H273     H      0.742500000000     0.936900000000     0.118000000000     0          
Br274    Br     0.811100000000     0.914300000000     0.162800000000     0          
O275     O      0.673900000000     0.533570000000     0.621440000000     0          
C276     C      0.723500000000     0.484800000000     0.622100000000     0          
H277     H      0.700700000000     0.479200000000     0.615900000000     0          
C278     C      0.748200000000     0.460000000000     0.622800000000     0          
H279     H      0.742500000000     0.436900000000     0.618000000000     0          
Br280    Br     0.811100000000     0.414300000000     0.662800000000     0          
O281     O      0.173900000000     0.033570000000     0.621440000000     0          
C282     C      0.223500000000     0.984800000000     0.622100000000     0          
H283     H      0.200700000000     0.979200000000     0.615900000000     0          
C284     C      0.248200000000     0.960000000000     0.622800000000     0          
H285     H      0.242500000000     0.936900000000     0.618000000000     0          
O286     O      0.173900000000     0.533570000000     0.121440000000     0          
C287     C      0.223500000000     0.484800000000     0.122100000000     0          
H288     H      0.200700000000     0.479200000000     0.115900000000     0          
C289     C      0.248200000000     0.460000000000     0.122800000000     0          
H290     H      0.242500000000     0.436900000000     0.118000000000     0          
Br291    Br     0.311100000000     0.414300000000     0.162800000000     0          
Br292    Br     0.973200000000     0.348600000000     0.576000000000     0          
O293     O      0.076100000000     0.216430000000     0.621440000000     0          
C294     C      0.026500000000     0.265200000000     0.622100000000     0          
H295     H      0.049300000000     0.270800000000     0.615900000000     0          
C296     C      0.001800000000     0.290000000000     0.622800000000     0          
H297     H      0.007500000000     0.313100000000     0.618000000000     0          
C298     C      0.938800000000     0.338600000000     0.609400000000     0          
C299     C      0.911000000000     0.363000000000     0.610500000000     0          
C300     C      0.911700000000     0.386500000000     0.635900000000     0          
Br301    Br     0.973200000000     0.848600000000     0.076000000000     0          
O302     O      0.076100000000     0.716430000000     0.121440000000     0          
C303     C      0.026500000000     0.765200000000     0.122100000000     0          
H304     H      0.049300000000     0.770800000000     0.115900000000     0          
C305     C      0.001800000000     0.790000000000     0.122800000000     0          
H306     H      0.007500000000     0.813100000000     0.118000000000     0          
C307     C      0.938800000000     0.838600000000     0.109400000000     0          
C308     C      0.911000000000     0.863000000000     0.110500000000     0          
C309     C      0.911700000000     0.886500000000     0.135900000000     0          
Br310    Br     0.473200000000     0.348600000000     0.076000000000     0          
O311     O      0.576100000000     0.216430000000     0.121440000000     0          
C312     C      0.526500000000     0.265200000000     0.122100000000     0          
H313     H      0.549300000000     0.270800000000     0.115900000000     0          
C314     C      0.501800000000     0.290000000000     0.122800000000     0          
H315     H      0.507500000000     0.313100000000     0.118000000000     0          
C316     C      0.438800000000     0.338600000000     0.109400000000     0          
C317     C      0.411000000000     0.363000000000     0.110500000000     0          
C318     C      0.411700000000     0.386500000000     0.135900000000     0          
Br319    Br     0.473200000000     0.848600000000     0.576000000000     0          
O320     O      0.576100000000     0.716430000000     0.621440000000     0          
C321     C      0.526500000000     0.765200000000     0.622100000000     0          
H322     H      0.549300000000     0.770800000000     0.615900000000     0          
C323     C      0.501800000000     0.790000000000     0.622800000000     0          
H324     H      0.507500000000     0.813100000000     0.618000000000     0          
C325     C      0.438800000000     0.838600000000     0.609400000000     0          
C326     C      0.411000000000     0.863000000000     0.610500000000     0          
C327     C      0.411700000000     0.886500000000     0.635900000000     0          
Br328    Br     0.438900000000     0.835700000000     0.662800000000     0          
Br329    Br     0.276800000000     0.848600000000     0.174000000000     0          
O330     O      0.173900000000     0.716430000000     0.128560000000     0          
C331     C      0.223500000000     0.765200000000     0.127900000000     0          
H332     H      0.200700000000     0.770800000000     0.134100000000     0          
C333     C      0.248200000000     0.790000000000     0.127200000000     0          
H334     H      0.242500000000     0.813100000000     0.132000000000     0          
C335     C      0.311200000000     0.838600000000     0.140600000000     0          
C336     C      0.339000000000     0.863000000000     0.139500000000     0          
C337     C      0.338300000000     0.886500000000     0.114100000000     0          
Br338    Br     0.276800000000     0.348600000000     0.674000000000     0          
O339     O      0.173900000000     0.216430000000     0.628560000000     0          
C340     C      0.223500000000     0.265200000000     0.627900000000     0          
H341     H      0.200700000000     0.270800000000     0.634100000000     0          
C342     C      0.248200000000     0.290000000000     0.627200000000     0          
H343     H      0.242500000000     0.313100000000     0.632000000000     0          
C344     C      0.311200000000     0.338600000000     0.640600000000     0          
C345     C      0.339000000000     0.363000000000     0.639500000000     0          
C346     C      0.338300000000     0.386500000000     0.614100000000     0          
O347     O      0.673900000000     0.716430000000     0.628560000000     0          
C348     C      0.723500000000     0.765200000000     0.627900000000     0          
H349     H      0.700700000000     0.770800000000     0.634100000000     0          
C350     C      0.748200000000     0.790000000000     0.627200000000     0          
H351     H      0.742500000000     0.813100000000     0.632000000000     0          
Br352    Br     0.811100000000     0.835700000000     0.587200000000     0          
Br353    Br     0.776800000000     0.348600000000     0.174000000000     0          
O354     O      0.673900000000     0.216430000000     0.128560000000     0          
C355     C      0.723500000000     0.265200000000     0.127900000000     0          
H356     H      0.700700000000     0.270800000000     0.134100000000     0          
C357     C      0.748200000000     0.290000000000     0.127200000000     0          
H358     H      0.742500000000     0.313100000000     0.132000000000     0          
C359     C      0.811200000000     0.338600000000     0.140600000000     0          
C360     C      0.839000000000     0.363000000000     0.139500000000     0          
C361     C      0.838300000000     0.386500000000     0.114100000000     0          
Br362    Br     0.223200000000     0.924000000000     0.098600000000     0          
O363     O      0.326100000000     0.878560000000     0.966430000000     0          
C364     C      0.276500000000     0.877900000000     0.015200000000     0          
H365     H      0.299300000000     0.884100000000     0.020800000000     0          
C366     C      0.251800000000     0.877200000000     0.040000000000     0          
H367     H      0.257500000000     0.882000000000     0.063100000000     0          
C368     C      0.188800000000     0.890600000000     0.088600000000     0          
C369     C      0.161000000000     0.889500000000     0.113000000000     0          
C370     C      0.161700000000     0.864100000000     0.136500000000     0          
Br371    Br     0.223200000000     0.424000000000     0.598600000000     0          
O372     O      0.326100000000     0.378560000000     0.466430000000     0          
C373     C      0.276500000000     0.377900000000     0.515200000000     0          
H374     H      0.299300000000     0.384100000000     0.520800000000     0          
C375     C      0.251800000000     0.377200000000     0.540000000000     0          
H376     H      0.257500000000     0.382000000000     0.563100000000     0          
C377     C      0.188800000000     0.390600000000     0.588600000000     0          
C378     C      0.161000000000     0.389500000000     0.613000000000     0          
C379     C      0.161700000000     0.364100000000     0.636500000000     0          
Br380    Br     0.723200000000     0.924000000000     0.598600000000     0          
O381     O      0.826100000000     0.878560000000     0.466430000000     0          
C382     C      0.776500000000     0.877900000000     0.515200000000     0          
H383     H      0.799300000000     0.884100000000     0.520800000000     0          
C384     C      0.751800000000     0.877200000000     0.540000000000     0          
H385     H      0.757500000000     0.882000000000     0.563100000000     0          
C386     C      0.688800000000     0.890600000000     0.588600000000     0          
C387     C      0.661000000000     0.889500000000     0.613000000000     0          
C388     C      0.661700000000     0.864100000000     0.636500000000     0          
Br389    Br     0.723200000000     0.424000000000     0.098600000000     0          
O390     O      0.826100000000     0.378560000000     0.966430000000     0          
C391     C      0.776500000000     0.377900000000     0.015200000000     0          
H392     H      0.799300000000     0.384100000000     0.020800000000     0          
C393     C      0.751800000000     0.377200000000     0.040000000000     0          
H394     H      0.757500000000     0.382000000000     0.063100000000     0          
C395     C      0.688800000000     0.390600000000     0.088600000000     0          
C396     C      0.661000000000     0.389500000000     0.113000000000     0          
C397     C      0.661700000000     0.364100000000     0.136500000000     0          
O398     O      0.423900000000     0.371440000000     0.466430000000     0          
C399     C      0.473500000000     0.372100000000     0.515200000000     0          
H400     H      0.450700000000     0.365900000000     0.520800000000     0          
C401     C      0.498200000000     0.372800000000     0.540000000000     0          
H402     H      0.492500000000     0.368000000000     0.563100000000     0          
Br403    Br     0.561100000000     0.412800000000     0.585700000000     0          
Br404    Br     0.526800000000     0.826000000000     0.098600000000     0          
O405     O      0.423900000000     0.871440000000     0.966430000000     0          
C406     C      0.473500000000     0.872100000000     0.015200000000     0          
H407     H      0.450700000000     0.865900000000     0.020800000000     0          
C408     C      0.498200000000     0.872800000000     0.040000000000     0          
H409     H      0.492500000000     0.868000000000     0.063100000000     0          
C410     C      0.561200000000     0.859400000000     0.088600000000     0          
C411     C      0.589000000000     0.860500000000     0.113000000000     0          
C412     C      0.588300000000     0.885900000000     0.136500000000     0          
Br413    Br     0.561100000000     0.912800000000     0.085700000000     0          
O414     O      0.923900000000     0.371440000000     0.966430000000     0          
C415     C      0.973500000000     0.372100000000     0.015200000000     0          
H416     H      0.950700000000     0.365900000000     0.020800000000     0          
C417     C      0.998200000000     0.372800000000     0.040000000000     0          
H418     H      0.992500000000     0.368000000000     0.063100000000     0          
O419     O      0.923900000000     0.871440000000     0.466430000000     0          
C420     C      0.973500000000     0.872100000000     0.515200000000     0          
H421     H      0.950700000000     0.865900000000     0.520800000000     0          
C422     C      0.998200000000     0.872800000000     0.540000000000     0          
H423     H      0.992500000000     0.868000000000     0.563100000000     0          
Br424    Br     0.061100000000     0.912800000000     0.585700000000     0          
O425     O      0.826100000000     0.871440000000     0.283570000000     0          
C426     C      0.776500000000     0.872100000000     0.234800000000     0          
H427     H      0.799300000000     0.865900000000     0.229200000000     0          
C428     C      0.751800000000     0.872800000000     0.210000000000     0          
H429     H      0.757500000000     0.868000000000     0.186900000000     0          
Br430    Br     0.723200000000     0.326000000000     0.651400000000     0          
O431     O      0.826100000000     0.371440000000     0.783570000000     0          
C432     C      0.776500000000     0.372100000000     0.734800000000     0          
H433     H      0.799300000000     0.365900000000     0.729200000000     0          
C434     C      0.751800000000     0.372800000000     0.710000000000     0          
H435     H      0.757500000000     0.368000000000     0.686900000000     0          
C436     C      0.688800000000     0.359400000000     0.661400000000     0          
C437     C      0.661000000000     0.360500000000     0.637000000000     0          
C438     C      0.661700000000     0.385900000000     0.613500000000     0          
Br439    Br     0.223200000000     0.826000000000     0.651400000000     0          
O440     O      0.326100000000     0.871440000000     0.783570000000     0          
C441     C      0.276500000000     0.872100000000     0.734800000000     0          
H442     H      0.299300000000     0.865900000000     0.729200000000     0          
C443     C      0.251800000000     0.872800000000     0.710000000000     0          
H444     H      0.257500000000     0.868000000000     0.686900000000     0          
C445     C      0.188800000000     0.859400000000     0.661400000000     0          
C446     C      0.161000000000     0.860500000000     0.637000000000     0          
C447     C      0.161700000000     0.885900000000     0.613500000000     0          
Br448    Br     0.223200000000     0.326000000000     0.151400000000     0          
O449     O      0.326100000000     0.371440000000     0.283570000000     0          
C450     C      0.276500000000     0.372100000000     0.234800000000     0          
H451     H      0.299300000000     0.365900000000     0.229200000000     0          
C452     C      0.251800000000     0.372800000000     0.210000000000     0          
H453     H      0.257500000000     0.368000000000     0.186900000000     0          
C454     C      0.188800000000     0.359400000000     0.161400000000     0          
C455     C      0.161000000000     0.360500000000     0.137000000000     0          
C456     C      0.161700000000     0.385900000000     0.113500000000     0          
O457     O      0.923900000000     0.378560000000     0.783570000000     0          
C458     C      0.973500000000     0.377900000000     0.734800000000     0          
H459     H      0.950700000000     0.384100000000     0.729200000000     0          
C460     C      0.998200000000     0.377200000000     0.710000000000     0          
H461     H      0.992500000000     0.382000000000     0.686900000000     0          
Br462    Br     0.061100000000     0.337200000000     0.664300000000     0          
O463     O      0.923900000000     0.878560000000     0.283570000000     0          
C464     C      0.973500000000     0.877900000000     0.234800000000     0          
H465     H      0.950700000000     0.884100000000     0.229200000000     0          
C466     C      0.998200000000     0.877200000000     0.210000000000     0          
H467     H      0.992500000000     0.882000000000     0.186900000000     0          
Br468    Br     0.061100000000     0.837200000000     0.164300000000     0          
O469     O      0.423900000000     0.378560000000     0.283570000000     0          
C470     C      0.473500000000     0.377900000000     0.234800000000     0          
H471     H      0.450700000000     0.384100000000     0.229200000000     0          
C472     C      0.498200000000     0.377200000000     0.210000000000     0          
H473     H      0.492500000000     0.382000000000     0.186900000000     0          
Br474    Br     0.561100000000     0.337200000000     0.164300000000     0          
O475     O      0.423900000000     0.878560000000     0.783570000000     0          
C476     C      0.473500000000     0.877900000000     0.734800000000     0          
H477     H      0.450700000000     0.884100000000     0.729200000000     0          
C478     C      0.498200000000     0.877200000000     0.710000000000     0          
H479     H      0.492500000000     0.882000000000     0.686900000000     0          
Br480    Br     0.561100000000     0.837200000000     0.664300000000     0          
O481     O      0.378560000000     0.783570000000     0.923900000000     0          
C482     C      0.377900000000     0.734800000000     0.973500000000     0          
H483     H      0.384100000000     0.729200000000     0.950700000000     0          
C484     C      0.377200000000     0.710000000000     0.998200000000     0          
H485     H      0.382000000000     0.686900000000     0.992500000000     0          
Br486    Br     0.337200000000     0.664300000000     0.061100000000     0          
O487     O      0.378560000000     0.283570000000     0.423900000000     0          
C488     C      0.377900000000     0.234800000000     0.473500000000     0          
H489     H      0.384100000000     0.229200000000     0.450700000000     0          
C490     C      0.377200000000     0.210000000000     0.498200000000     0          
H491     H      0.382000000000     0.186900000000     0.492500000000     0          
Br492    Br     0.337200000000     0.164300000000     0.561100000000     0          
Br493    Br     0.924000000000     0.651400000000     0.526800000000     0          
O494     O      0.878560000000     0.783570000000     0.423900000000     0          
C495     C      0.877900000000     0.734800000000     0.473500000000     0          
H496     H      0.884100000000     0.729200000000     0.450700000000     0          
C497     C      0.877200000000     0.710000000000     0.498200000000     0          
H498     H      0.882000000000     0.686900000000     0.492500000000     0          
C499     C      0.890600000000     0.661400000000     0.561200000000     0          
C500     C      0.889500000000     0.637000000000     0.589000000000     0          
C501     C      0.864100000000     0.613500000000     0.588300000000     0          
O502     O      0.878560000000     0.283570000000     0.923900000000     0          
C503     C      0.877900000000     0.234800000000     0.973500000000     0          
H504     H      0.884100000000     0.229200000000     0.950700000000     0          
C505     C      0.877200000000     0.210000000000     0.998200000000     0          
H506     H      0.882000000000     0.186900000000     0.992500000000     0          
Br507    Br     0.837200000000     0.164300000000     0.061100000000     0          
O508     O      0.871440000000     0.283570000000     0.826100000000     0          
C509     C      0.872100000000     0.234800000000     0.776500000000     0          
H510     H      0.865900000000     0.229200000000     0.799300000000     0          
C511     C      0.872800000000     0.210000000000     0.751800000000     0          
H512     H      0.868000000000     0.186900000000     0.757500000000     0          
Br513    Br     0.912800000000     0.164300000000     0.688900000000     0          
O514     O      0.871440000000     0.783570000000     0.326100000000     0          
C515     C      0.872100000000     0.734800000000     0.276500000000     0          
H516     H      0.865900000000     0.729200000000     0.299300000000     0          
C517     C      0.872800000000     0.710000000000     0.251800000000     0          
H518     H      0.868000000000     0.686900000000     0.257500000000     0          
Br519    Br     0.912800000000     0.664300000000     0.188900000000     0          
O520     O      0.371440000000     0.283570000000     0.326100000000     0          
C521     C      0.372100000000     0.234800000000     0.276500000000     0          
H522     H      0.365900000000     0.229200000000     0.299300000000     0          
C523     C      0.372800000000     0.210000000000     0.251800000000     0          
H524     H      0.368000000000     0.186900000000     0.257500000000     0          
Br525    Br     0.412800000000     0.164300000000     0.188900000000     0          
O526     O      0.371440000000     0.783570000000     0.826100000000     0          
C527     C      0.372100000000     0.734800000000     0.776500000000     0          
H528     H      0.365900000000     0.729200000000     0.799300000000     0          
C529     C      0.372800000000     0.710000000000     0.751800000000     0          
H530     H      0.368000000000     0.686900000000     0.757500000000     0          
Br531    Br     0.412800000000     0.664300000000     0.688900000000     0          
Br532    Br     0.326000000000     0.598600000000     0.526800000000     0          
O533     O      0.371440000000     0.466430000000     0.423900000000     0          
C534     C      0.372100000000     0.515200000000     0.473500000000     0          
H535     H      0.365900000000     0.520800000000     0.450700000000     0          
C536     C      0.372800000000     0.540000000000     0.498200000000     0          
H537     H      0.368000000000     0.563100000000     0.492500000000     0          
C538     C      0.359400000000     0.588600000000     0.561200000000     0          
C539     C      0.360500000000     0.613000000000     0.589000000000     0          
C540     C      0.385900000000     0.636500000000     0.588300000000     0          
Br541    Br     0.326000000000     0.098600000000     0.026800000000     0          
O542     O      0.371440000000     0.966430000000     0.923900000000     0          
C543     C      0.372100000000     0.015200000000     0.973500000000     0          
H544     H      0.365900000000     0.020800000000     0.950700000000     0          
C545     C      0.372800000000     0.040000000000     0.998200000000     0          
H546     H      0.368000000000     0.063100000000     0.992500000000     0          
C547     C      0.359400000000     0.088600000000     0.061200000000     0          
C548     C      0.360500000000     0.113000000000     0.089000000000     0          
C549     C      0.385900000000     0.136500000000     0.088300000000     0          
Br550    Br     0.826000000000     0.598600000000     0.026800000000     0          
O551     O      0.871440000000     0.466430000000     0.923900000000     0          
C552     C      0.872100000000     0.515200000000     0.973500000000     0          
H553     H      0.865900000000     0.520800000000     0.950700000000     0          
C554     C      0.872800000000     0.540000000000     0.998200000000     0          
H555     H      0.868000000000     0.563100000000     0.992500000000     0          
C556     C      0.859400000000     0.588600000000     0.061200000000     0          
C557     C      0.860500000000     0.613000000000     0.089000000000     0          
C558     C      0.885900000000     0.636500000000     0.088300000000     0          
Br559    Br     0.826000000000     0.098600000000     0.526800000000     0          
O560     O      0.871440000000     0.966430000000     0.423900000000     0          
C561     C      0.872100000000     0.015200000000     0.473500000000     0          
H562     H      0.865900000000     0.020800000000     0.450700000000     0          
C563     C      0.872800000000     0.040000000000     0.498200000000     0          
H564     H      0.868000000000     0.063100000000     0.492500000000     0          
C565     C      0.859400000000     0.088600000000     0.561200000000     0          
C566     C      0.860500000000     0.113000000000     0.589000000000     0          
C567     C      0.885900000000     0.136500000000     0.588300000000     0          
Br568    Br     0.924000000000     0.098600000000     0.223200000000     0          
O569     O      0.878560000000     0.966430000000     0.326100000000     0          
C570     C      0.877900000000     0.015200000000     0.276500000000     0          
H571     H      0.884100000000     0.020800000000     0.299300000000     0          
C572     C      0.877200000000     0.040000000000     0.251800000000     0          
H573     H      0.882000000000     0.063100000000     0.257500000000     0          
C574     C      0.890600000000     0.088600000000     0.188800000000     0          
C575     C      0.889500000000     0.113000000000     0.161000000000     0          
C576     C      0.864100000000     0.136500000000     0.161700000000     0          
O577     O      0.878560000000     0.466430000000     0.826100000000     0          
C578     C      0.877900000000     0.515200000000     0.776500000000     0          
H579     H      0.884100000000     0.520800000000     0.799300000000     0          
C580     C      0.877200000000     0.540000000000     0.751800000000     0          
H581     H      0.882000000000     0.563100000000     0.757500000000     0          
Br582    Br     0.837200000000     0.585700000000     0.688900000000     0          
Br583    Br     0.424000000000     0.098600000000     0.723200000000     0          
O584     O      0.378560000000     0.966430000000     0.826100000000     0          
C585     C      0.377900000000     0.015200000000     0.776500000000     0          
H586     H      0.384100000000     0.020800000000     0.799300000000     0          
C587     C      0.377200000000     0.040000000000     0.751800000000     0          
H588     H      0.382000000000     0.063100000000     0.757500000000     0          
C589     C      0.390600000000     0.088600000000     0.688800000000     0          
C590     C      0.389500000000     0.113000000000     0.661000000000     0          
C591     C      0.364100000000     0.136500000000     0.661700000000     0          
Br592    Br     0.424000000000     0.598600000000     0.223200000000     0          
O593     O      0.378560000000     0.466430000000     0.326100000000     0          
C594     C      0.377900000000     0.515200000000     0.276500000000     0          
H595     H      0.384100000000     0.520800000000     0.299300000000     0          
C596     C      0.377200000000     0.540000000000     0.251800000000     0          
H597     H      0.382000000000     0.563100000000     0.257500000000     0          
C598     C      0.390600000000     0.588600000000     0.188800000000     0          
C599     C      0.389500000000     0.613000000000     0.161000000000     0          
C600     C      0.364100000000     0.636500000000     0.161700000000     0          
Br601    Br     0.151400000000     0.723200000000     0.826000000000     0          
O602     O      0.283570000000     0.826100000000     0.871440000000     0          
C603     C      0.234800000000     0.776500000000     0.872100000000     0          
H604     H      0.229200000000     0.799300000000     0.865900000000     0          
C605     C      0.210000000000     0.751800000000     0.872800000000     0          
H606     H      0.186900000000     0.757500000000     0.868000000000     0          
C607     C      0.161400000000     0.688800000000     0.859400000000     0          
C608     C      0.137000000000     0.661000000000     0.860500000000     0          
C609     C      0.113500000000     0.661700000000     0.885900000000     0          
Br610    Br     0.151400000000     0.223200000000     0.326000000000     0          
O611     O      0.283570000000     0.326100000000     0.371440000000     0          
C612     C      0.234800000000     0.276500000000     0.372100000000     0          
H613     H      0.229200000000     0.299300000000     0.365900000000     0          
C614     C      0.210000000000     0.251800000000     0.372800000000     0          
H615     H      0.186900000000     0.257500000000     0.368000000000     0          
C616     C      0.161400000000     0.188800000000     0.359400000000     0          
C617     C      0.137000000000     0.161000000000     0.360500000000     0          
C618     C      0.113500000000     0.161700000000     0.385900000000     0          
Br619    Br     0.651400000000     0.723200000000     0.326000000000     0          
O620     O      0.783570000000     0.826100000000     0.371440000000     0          
C621     C      0.734800000000     0.776500000000     0.372100000000     0          
H622     H      0.729200000000     0.799300000000     0.365900000000     0          
C623     C      0.710000000000     0.751800000000     0.372800000000     0          
H624     H      0.686900000000     0.757500000000     0.368000000000     0          
C625     C      0.661400000000     0.688800000000     0.359400000000     0          
C626     C      0.637000000000     0.661000000000     0.360500000000     0          
C627     C      0.613500000000     0.661700000000     0.385900000000     0          
Br628    Br     0.651400000000     0.223200000000     0.826000000000     0          
O629     O      0.783570000000     0.326100000000     0.871440000000     0          
C630     C      0.734800000000     0.276500000000     0.872100000000     0          
H631     H      0.729200000000     0.299300000000     0.865900000000     0          
C632     C      0.710000000000     0.251800000000     0.872800000000     0          
H633     H      0.686900000000     0.257500000000     0.868000000000     0          
C634     C      0.661400000000     0.188800000000     0.859400000000     0          
C635     C      0.637000000000     0.161000000000     0.860500000000     0          
C636     C      0.613500000000     0.161700000000     0.885900000000     0          
O637     O      0.783570000000     0.923900000000     0.378560000000     0          
C638     C      0.734800000000     0.973500000000     0.377900000000     0          
H639     H      0.729200000000     0.950700000000     0.384100000000     0          
C640     C      0.710000000000     0.998200000000     0.377200000000     0          
H641     H      0.686900000000     0.992500000000     0.382000000000     0          
Br642    Br     0.664300000000     0.061100000000     0.337200000000     0          
Br643    Br     0.651400000000     0.526800000000     0.924000000000     0          
O644     O      0.783570000000     0.423900000000     0.878560000000     0          
C645     C      0.734800000000     0.473500000000     0.877900000000     0          
H646     H      0.729200000000     0.450700000000     0.884100000000     0          
C647     C      0.710000000000     0.498200000000     0.877200000000     0          
H648     H      0.686900000000     0.492500000000     0.882000000000     0          
C649     C      0.661400000000     0.561200000000     0.890600000000     0          
C650     C      0.637000000000     0.589000000000     0.889500000000     0          
C651     C      0.613500000000     0.588300000000     0.864100000000     0          
Br652    Br     0.664300000000     0.561100000000     0.837200000000     0          
O653     O      0.283570000000     0.923900000000     0.878560000000     0          
C654     C      0.234800000000     0.973500000000     0.877900000000     0          
H655     H      0.229200000000     0.950700000000     0.884100000000     0          
C656     C      0.210000000000     0.998200000000     0.877200000000     0          
H657     H      0.186900000000     0.992500000000     0.882000000000     0          
Br658    Br     0.164300000000     0.061100000000     0.837200000000     0          
O659     O      0.283570000000     0.423900000000     0.378560000000     0          
C660     C      0.234800000000     0.473500000000     0.377900000000     0          
H661     H      0.229200000000     0.450700000000     0.384100000000     0          
C662     C      0.210000000000     0.498200000000     0.377200000000     0          
H663     H      0.186900000000     0.492500000000     0.382000000000     0          
Br664    Br     0.164300000000     0.561100000000     0.337200000000     0          
Br665    Br     0.098600000000     0.223200000000     0.924000000000     0          
O666     O      0.966430000000     0.326100000000     0.878560000000     0          
C667     C      0.015200000000     0.276500000000     0.877900000000     0          
H668     H      0.020800000000     0.299300000000     0.884100000000     0          
C669     C      0.040000000000     0.251800000000     0.877200000000     0          
H670     H      0.063100000000     0.257500000000     0.882000000000     0          
C671     C      0.088600000000     0.188800000000     0.890600000000     0          
C672     C      0.113000000000     0.161000000000     0.889500000000     0          
C673     C      0.136500000000     0.161700000000     0.864100000000     0          
Br674    Br     0.098600000000     0.723200000000     0.424000000000     0          
O675     O      0.966430000000     0.826100000000     0.378560000000     0          
C676     C      0.015200000000     0.776500000000     0.377900000000     0          
H677     H      0.020800000000     0.799300000000     0.384100000000     0          
C678     C      0.040000000000     0.751800000000     0.377200000000     0          
H679     H      0.063100000000     0.757500000000     0.382000000000     0          
C680     C      0.088600000000     0.688800000000     0.390600000000     0          
C681     C      0.113000000000     0.661000000000     0.389500000000     0          
C682     C      0.136500000000     0.661700000000     0.364100000000     0          
Br683    Br     0.598600000000     0.223200000000     0.424000000000     0          
O684     O      0.466430000000     0.326100000000     0.378560000000     0          
C685     C      0.515200000000     0.276500000000     0.377900000000     0          
H686     H      0.520800000000     0.299300000000     0.384100000000     0          
C687     C      0.540000000000     0.251800000000     0.377200000000     0          
H688     H      0.563100000000     0.257500000000     0.382000000000     0          
C689     C      0.588600000000     0.188800000000     0.390600000000     0          
C690     C      0.613000000000     0.161000000000     0.389500000000     0          
C691     C      0.636500000000     0.161700000000     0.364100000000     0          
O692     O      0.466430000000     0.826100000000     0.878560000000     0          
C693     C      0.515200000000     0.776500000000     0.877900000000     0          
H694     H      0.520800000000     0.799300000000     0.884100000000     0          
C695     C      0.540000000000     0.751800000000     0.877200000000     0          
H696     H      0.563100000000     0.757500000000     0.882000000000     0          
O697     O      0.466430000000     0.423900000000     0.371440000000     0          
C698     C      0.515200000000     0.473500000000     0.372100000000     0          
H699     H      0.520800000000     0.450700000000     0.365900000000     0          
C700     C      0.540000000000     0.498200000000     0.372800000000     0          
H701     H      0.563100000000     0.492500000000     0.368000000000     0          
Br702    Br     0.585700000000     0.561100000000     0.412800000000     0          
O703     O      0.466430000000     0.923900000000     0.871440000000     0          
C704     C      0.515200000000     0.973500000000     0.872100000000     0          
H705     H      0.520800000000     0.950700000000     0.865900000000     0          
C706     C      0.540000000000     0.998200000000     0.872800000000     0          
H707     H      0.563100000000     0.992500000000     0.868000000000     0          
Br708    Br     0.585700000000     0.061100000000     0.912800000000     0          
O709     O      0.966430000000     0.423900000000     0.871440000000     0          
C710     C      0.015200000000     0.473500000000     0.872100000000     0          
H711     H      0.020800000000     0.450700000000     0.865900000000     0          
C712     C      0.040000000000     0.498200000000     0.872800000000     0          
H713     H      0.063100000000     0.492500000000     0.868000000000     0          
Br714    Br     0.085700000000     0.561100000000     0.912800000000     0          
O715     O      0.966430000000     0.923900000000     0.371440000000     0          
C716     C      0.015200000000     0.973500000000     0.372100000000     0          
H717     H      0.020800000000     0.950700000000     0.365900000000     0          
C718     C      0.040000000000     0.998200000000     0.372800000000     0          
H719     H      0.063100000000     0.992500000000     0.368000000000     0          
Br720    Br     0.085700000000     0.061100000000     0.412800000000     0          
O721     O      0.371440000000     0.423900000000     0.466430000000     0          
C722     C      0.372100000000     0.473500000000     0.515200000000     0          
H723     H      0.365900000000     0.450700000000     0.520800000000     0          
C724     C      0.372800000000     0.498200000000     0.540000000000     0          
H725     H      0.368000000000     0.492500000000     0.563100000000     0          
Br726    Br     0.412800000000     0.561100000000     0.585700000000     0          
O727     O      0.371440000000     0.923900000000     0.966430000000     0          
C728     C      0.372100000000     0.973500000000     0.015200000000     0          
H729     H      0.365900000000     0.950700000000     0.020800000000     0          
C730     C      0.372800000000     0.998200000000     0.040000000000     0          
H731     H      0.368000000000     0.992500000000     0.063100000000     0          
Br732    Br     0.412800000000     0.061100000000     0.085700000000     0          
O733     O      0.871440000000     0.423900000000     0.966430000000     0          
C734     C      0.872100000000     0.473500000000     0.015200000000     0          
H735     H      0.865900000000     0.450700000000     0.020800000000     0          
C736     C      0.872800000000     0.498200000000     0.040000000000     0          
H737     H      0.868000000000     0.492500000000     0.063100000000     0          
Br738    Br     0.912800000000     0.561100000000     0.085700000000     0          
O739     O      0.871440000000     0.923900000000     0.466430000000     0          
C740     C      0.872100000000     0.973500000000     0.515200000000     0          
H741     H      0.865900000000     0.950700000000     0.520800000000     0          
C742     C      0.872800000000     0.998200000000     0.540000000000     0          
H743     H      0.868000000000     0.992500000000     0.563100000000     0          
Br744    Br     0.912800000000     0.061100000000     0.585700000000     0          
Br745    Br     0.924000000000     0.223200000000     0.098600000000     0          
O746     O      0.878560000000     0.326100000000     0.966430000000     0          
C747     C      0.877900000000     0.276500000000     0.015200000000     0          
H748     H      0.884100000000     0.299300000000     0.020800000000     0          
C749     C      0.877200000000     0.251800000000     0.040000000000     0          
H750     H      0.882000000000     0.257500000000     0.063100000000     0          
C751     C      0.890600000000     0.188800000000     0.088600000000     0          
C752     C      0.889500000000     0.161000000000     0.113000000000     0          
C753     C      0.864100000000     0.161700000000     0.136500000000     0          
O754     O      0.878560000000     0.826100000000     0.466430000000     0          
C755     C      0.877900000000     0.776500000000     0.515200000000     0          
H756     H      0.884100000000     0.799300000000     0.520800000000     0          
C757     C      0.877200000000     0.751800000000     0.540000000000     0          
H758     H      0.882000000000     0.757500000000     0.563100000000     0          
Br759    Br     0.837200000000     0.688900000000     0.585700000000     0          
Br760    Br     0.424000000000     0.223200000000     0.598600000000     0          
O761     O      0.378560000000     0.326100000000     0.466430000000     0          
C762     C      0.377900000000     0.276500000000     0.515200000000     0          
H763     H      0.384100000000     0.299300000000     0.520800000000     0          
C764     C      0.377200000000     0.251800000000     0.540000000000     0          
H765     H      0.382000000000     0.257500000000     0.563100000000     0          
C766     C      0.390600000000     0.188800000000     0.588600000000     0          
C767     C      0.389500000000     0.161000000000     0.613000000000     0          
C768     C      0.364100000000     0.161700000000     0.636500000000     0          
Br769    Br     0.424000000000     0.723200000000     0.098600000000     0          
O770     O      0.378560000000     0.826100000000     0.966430000000     0          
C771     C      0.377900000000     0.776500000000     0.015200000000     0          
H772     H      0.384100000000     0.799300000000     0.020800000000     0          
C773     C      0.377200000000     0.751800000000     0.040000000000     0          
H774     H      0.382000000000     0.757500000000     0.063100000000     0          
C775     C      0.390600000000     0.688800000000     0.088600000000     0          
C776     C      0.389500000000     0.661000000000     0.113000000000     0          
C777     C      0.364100000000     0.661700000000     0.136500000000     0          
O778     O      0.378560000000     0.923900000000     0.783570000000     0          
C779     C      0.377900000000     0.973500000000     0.734800000000     0          
H780     H      0.384100000000     0.950700000000     0.729200000000     0          
C781     C      0.377200000000     0.998200000000     0.710000000000     0          
H782     H      0.382000000000     0.992500000000     0.686900000000     0          
Br783    Br     0.337200000000     0.061100000000     0.664300000000     0          
O784     O      0.378560000000     0.423900000000     0.283570000000     0          
C785     C      0.377900000000     0.473500000000     0.234800000000     0          
H786     H      0.384100000000     0.450700000000     0.229200000000     0          
C787     C      0.377200000000     0.498200000000     0.210000000000     0          
H788     H      0.382000000000     0.492500000000     0.186900000000     0          
Br789    Br     0.337200000000     0.561100000000     0.164300000000     0          
O790     O      0.878560000000     0.923900000000     0.283570000000     0          
C791     C      0.877900000000     0.973500000000     0.234800000000     0          
H792     H      0.884100000000     0.950700000000     0.229200000000     0          
C793     C      0.877200000000     0.998200000000     0.210000000000     0          
H794     H      0.882000000000     0.992500000000     0.186900000000     0          
Br795    Br     0.837200000000     0.061100000000     0.164300000000     0          
Br796    Br     0.924000000000     0.526800000000     0.651400000000     0          
O797     O      0.878560000000     0.423900000000     0.783570000000     0          
C798     C      0.877900000000     0.473500000000     0.734800000000     0          
H799     H      0.884100000000     0.450700000000     0.729200000000     0          
C800     C      0.877200000000     0.498200000000     0.710000000000     0          
H801     H      0.882000000000     0.492500000000     0.686900000000     0          
C802     C      0.890600000000     0.561200000000     0.661400000000     0          
C803     C      0.889500000000     0.589000000000     0.637000000000     0          
C804     C      0.864100000000     0.588300000000     0.613500000000     0          
Br805    Br     0.826000000000     0.723200000000     0.151400000000     0          
O806     O      0.871440000000     0.826100000000     0.283570000000     0          
C807     C      0.872100000000     0.776500000000     0.234800000000     0          
H808     H      0.865900000000     0.799300000000     0.229200000000     0          
C809     C      0.872800000000     0.751800000000     0.210000000000     0          
H810     H      0.868000000000     0.757500000000     0.186900000000     0          
C811     C      0.859400000000     0.688800000000     0.161400000000     0          
C812     C      0.860500000000     0.661000000000     0.137000000000     0          
C813     C      0.885900000000     0.661700000000     0.113500000000     0          
Br814    Br     0.826000000000     0.223200000000     0.651400000000     0          
O815     O      0.871440000000     0.326100000000     0.783570000000     0          
C816     C      0.872100000000     0.276500000000     0.734800000000     0          
H817     H      0.865900000000     0.299300000000     0.729200000000     0          
C818     C      0.872800000000     0.251800000000     0.710000000000     0          
H819     H      0.868000000000     0.257500000000     0.686900000000     0          
C820     C      0.859400000000     0.188800000000     0.661400000000     0          
C821     C      0.860500000000     0.161000000000     0.637000000000     0          
C822     C      0.885900000000     0.161700000000     0.613500000000     0          
Br823    Br     0.326000000000     0.723200000000     0.651400000000     0          
O824     O      0.371440000000     0.826100000000     0.783570000000     0          
C825     C      0.372100000000     0.776500000000     0.734800000000     0          
H826     H      0.365900000000     0.799300000000     0.729200000000     0          
C827     C      0.372800000000     0.751800000000     0.710000000000     0          
H828     H      0.368000000000     0.757500000000     0.686900000000     0          
C829     C      0.359400000000     0.688800000000     0.661400000000     0          
C830     C      0.360500000000     0.661000000000     0.637000000000     0          
C831     C      0.385900000000     0.661700000000     0.613500000000     0          
Br832    Br     0.326000000000     0.223200000000     0.151400000000     0          
O833     O      0.371440000000     0.326100000000     0.283570000000     0          
C834     C      0.372100000000     0.276500000000     0.234800000000     0          
H835     H      0.365900000000     0.299300000000     0.229200000000     0          
C836     C      0.372800000000     0.251800000000     0.210000000000     0          
H837     H      0.368000000000     0.257500000000     0.186900000000     0          
C838     C      0.359400000000     0.188800000000     0.161400000000     0          
C839     C      0.360500000000     0.161000000000     0.137000000000     0          
C840     C      0.385900000000     0.161700000000     0.113500000000     0          
Br841    Br     0.598600000000     0.326000000000     0.526800000000     0          
O842     O      0.466430000000     0.371440000000     0.423900000000     0          
C843     C      0.515200000000     0.372100000000     0.473500000000     0          
H844     H      0.520800000000     0.365900000000     0.450700000000     0          
C845     C      0.540000000000     0.372800000000     0.498200000000     0          
H846     H      0.563100000000     0.368000000000     0.492500000000     0          
C847     C      0.588600000000     0.359400000000     0.561200000000     0          
C848     C      0.613000000000     0.360500000000     0.589000000000     0          
C849     C      0.636500000000     0.385900000000     0.588300000000     0          
O850     O      0.466430000000     0.871440000000     0.923900000000     0          
C851     C      0.515200000000     0.872100000000     0.973500000000     0          
H852     H      0.520800000000     0.865900000000     0.950700000000     0          
C853     C      0.540000000000     0.872800000000     0.998200000000     0          
H854     H      0.563100000000     0.868000000000     0.992500000000     0          
Br855    Br     0.098600000000     0.326000000000     0.026800000000     0          
O856     O      0.966430000000     0.371440000000     0.923900000000     0          
C857     C      0.015200000000     0.372100000000     0.973500000000     0          
H858     H      0.020800000000     0.365900000000     0.950700000000     0          
C859     C      0.040000000000     0.372800000000     0.998200000000     0          
H860     H      0.063100000000     0.368000000000     0.992500000000     0          
C861     C      0.088600000000     0.359400000000     0.061200000000     0          
C862     C      0.113000000000     0.360500000000     0.089000000000     0          
C863     C      0.136500000000     0.385900000000     0.088300000000     0          
Br864    Br     0.085700000000     0.412800000000     0.061100000000     0          
Br865    Br     0.098600000000     0.826000000000     0.526800000000     0          
O866     O      0.966430000000     0.871440000000     0.423900000000     0          
C867     C      0.015200000000     0.872100000000     0.473500000000     0          
H868     H      0.020800000000     0.865900000000     0.450700000000     0          
C869     C      0.040000000000     0.872800000000     0.498200000000     0          
H870     H      0.063100000000     0.868000000000     0.492500000000     0          
C871     C      0.088600000000     0.859400000000     0.561200000000     0          
C872     C      0.113000000000     0.860500000000     0.589000000000     0          
C873     C      0.136500000000     0.885900000000     0.588300000000     0          
Br874    Br     0.098600000000     0.924000000000     0.223200000000     0          
O875     O      0.966430000000     0.878560000000     0.326100000000     0          
C876     C      0.015200000000     0.877900000000     0.276500000000     0          
H877     H      0.020800000000     0.884100000000     0.299300000000     0          
C878     C      0.040000000000     0.877200000000     0.251800000000     0          
H879     H      0.063100000000     0.882000000000     0.257500000000     0          
C880     C      0.088600000000     0.890600000000     0.188800000000     0          
C881     C      0.113000000000     0.889500000000     0.161000000000     0          
C882     C      0.136500000000     0.864100000000     0.161700000000     0          
Br883    Br     0.098600000000     0.424000000000     0.723200000000     0          
O884     O      0.966430000000     0.378560000000     0.826100000000     0          
C885     C      0.015200000000     0.377900000000     0.776500000000     0          
H886     H      0.020800000000     0.384100000000     0.799300000000     0          
C887     C      0.040000000000     0.377200000000     0.751800000000     0          
H888     H      0.063100000000     0.382000000000     0.757500000000     0          
C889     C      0.088600000000     0.390600000000     0.688800000000     0          
C890     C      0.113000000000     0.389500000000     0.661000000000     0          
C891     C      0.136500000000     0.364100000000     0.661700000000     0          
Br892    Br     0.598600000000     0.924000000000     0.723200000000     0          
O893     O      0.466430000000     0.878560000000     0.826100000000     0          
C894     C      0.515200000000     0.877900000000     0.776500000000     0          
H895     H      0.520800000000     0.884100000000     0.799300000000     0          
C896     C      0.540000000000     0.877200000000     0.751800000000     0          
H897     H      0.563100000000     0.882000000000     0.757500000000     0          
C898     C      0.588600000000     0.890600000000     0.688800000000     0          
C899     C      0.613000000000     0.889500000000     0.661000000000     0          
C900     C      0.636500000000     0.864100000000     0.661700000000     0          
Br901    Br     0.598600000000     0.424000000000     0.223200000000     0          
O902     O      0.466430000000     0.378560000000     0.326100000000     0          
C903     C      0.515200000000     0.377900000000     0.276500000000     0          
H904     H      0.520800000000     0.384100000000     0.299300000000     0          
C905     C      0.540000000000     0.377200000000     0.251800000000     0          
H906     H      0.563100000000     0.382000000000     0.257500000000     0          
C907     C      0.588600000000     0.390600000000     0.188800000000     0          
C908     C      0.613000000000     0.389500000000     0.161000000000     0          
C909     C      0.636500000000     0.364100000000     0.161700000000     0          
O910     O      0.783570000000     0.378560000000     0.923900000000     0          
C911     C      0.734800000000     0.377900000000     0.973500000000     0          
H912     H      0.729200000000     0.384100000000     0.950700000000     0          
C913     C      0.710000000000     0.377200000000     0.998200000000     0          
H914     H      0.686900000000     0.382000000000     0.992500000000     0          
Br915    Br     0.664300000000     0.337200000000     0.061100000000     0          
O916     O      0.783570000000     0.878560000000     0.423900000000     0          
C917     C      0.734800000000     0.877900000000     0.473500000000     0          
H918     H      0.729200000000     0.884100000000     0.450700000000     0          
C919     C      0.710000000000     0.877200000000     0.498200000000     0          
H920     H      0.686900000000     0.882000000000     0.492500000000     0          
Br921    Br     0.664300000000     0.837200000000     0.561100000000     0          
O922     O      0.283570000000     0.378560000000     0.423900000000     0          
C923     C      0.234800000000     0.377900000000     0.473500000000     0          
H924     H      0.229200000000     0.384100000000     0.450700000000     0          
C925     C      0.210000000000     0.377200000000     0.498200000000     0          
H926     H      0.186900000000     0.382000000000     0.492500000000     0          
Br927    Br     0.164300000000     0.337200000000     0.561100000000     0          
O928     O      0.283570000000     0.878560000000     0.923900000000     0          
C929     C      0.234800000000     0.877900000000     0.973500000000     0          
H930     H      0.229200000000     0.884100000000     0.950700000000     0          
C931     C      0.210000000000     0.877200000000     0.998200000000     0          
H932     H      0.186900000000     0.882000000000     0.992500000000     0          
Br933    Br     0.164300000000     0.837200000000     0.061100000000     0          
O934     O      0.283570000000     0.871440000000     0.826100000000     0          
C935     C      0.234800000000     0.872100000000     0.776500000000     0          
H936     H      0.229200000000     0.865900000000     0.799300000000     0          
C937     C      0.210000000000     0.872800000000     0.751800000000     0          
H938     H      0.186900000000     0.868000000000     0.757500000000     0          
Br939    Br     0.164300000000     0.912800000000     0.688900000000     0          
O940     O      0.283570000000     0.371440000000     0.326100000000     0          
C941     C      0.234800000000     0.372100000000     0.276500000000     0          
H942     H      0.229200000000     0.365900000000     0.299300000000     0          
C943     C      0.210000000000     0.372800000000     0.251800000000     0          
H944     H      0.186900000000     0.368000000000     0.257500000000     0          
Br945    Br     0.164300000000     0.412800000000     0.188900000000     0          
Br946    Br     0.651400000000     0.826000000000     0.223200000000     0          
O947     O      0.783570000000     0.871440000000     0.326100000000     0          
C948     C      0.734800000000     0.872100000000     0.276500000000     0          
H949     H      0.729200000000     0.865900000000     0.299300000000     0          
C950     C      0.710000000000     0.872800000000     0.251800000000     0          
H951     H      0.686900000000     0.868000000000     0.257500000000     0          
C952     C      0.661400000000     0.859400000000     0.188800000000     0          
C953     C      0.637000000000     0.860500000000     0.161000000000     0          
C954     C      0.613500000000     0.885900000000     0.161700000000     0          
Br955    Br     0.664300000000     0.912800000000     0.188900000000     0          
O956     O      0.783570000000     0.371440000000     0.826100000000     0          
C957     C      0.734800000000     0.372100000000     0.776500000000     0          
H958     H      0.729200000000     0.365900000000     0.799300000000     0          
C959     C      0.710000000000     0.372800000000     0.751800000000     0          
H960     H      0.686900000000     0.368000000000     0.757500000000     0          
Br961    Br     0.664300000000     0.412800000000     0.688900000000     0          
Br962    Br     0.526800000000     0.598600000000     0.326000000000     0          
O963     O      0.423900000000     0.466430000000     0.371440000000     0          
C964     C      0.473500000000     0.515200000000     0.372100000000     0          
H965     H      0.450700000000     0.520800000000     0.365900000000     0          
C966     C      0.498200000000     0.540000000000     0.372800000000     0          
H967     H      0.492500000000     0.563100000000     0.368000000000     0          
C968     C      0.561200000000     0.588600000000     0.359400000000     0          
C969     C      0.589000000000     0.613000000000     0.360500000000     0          
C970     C      0.588300000000     0.636500000000     0.385900000000     0          
Br971    Br     0.526800000000     0.098600000000     0.826000000000     0          
O972     O      0.423900000000     0.966430000000     0.871440000000     0          
C973     C      0.473500000000     0.015200000000     0.872100000000     0          
H974     H      0.450700000000     0.020800000000     0.865900000000     0          
C975     C      0.498200000000     0.040000000000     0.872800000000     0          
H976     H      0.492500000000     0.063100000000     0.868000000000     0          
C977     C      0.561200000000     0.088600000000     0.859400000000     0          
C978     C      0.589000000000     0.113000000000     0.860500000000     0          
C979     C      0.588300000000     0.136500000000     0.885900000000     0          
Br980    Br     0.026800000000     0.598600000000     0.826000000000     0          
O981     O      0.923900000000     0.466430000000     0.871440000000     0          
C982     C      0.973500000000     0.515200000000     0.872100000000     0          
H983     H      0.950700000000     0.520800000000     0.865900000000     0          
C984     C      0.998200000000     0.540000000000     0.872800000000     0          
H985     H      0.992500000000     0.563100000000     0.868000000000     0          
C986     C      0.061200000000     0.588600000000     0.859400000000     0          
C987     C      0.089000000000     0.613000000000     0.860500000000     0          
C988     C      0.088300000000     0.636500000000     0.885900000000     0          
Br989    Br     0.026800000000     0.098600000000     0.326000000000     0          
O990     O      0.923900000000     0.966430000000     0.371440000000     0          
C991     C      0.973500000000     0.015200000000     0.372100000000     0          
H992     H      0.950700000000     0.020800000000     0.365900000000     0          
C993     C      0.998200000000     0.040000000000     0.372800000000     0          
H994     H      0.992500000000     0.063100000000     0.368000000000     0          
C995     C      0.061200000000     0.088600000000     0.359400000000     0          
C996     C      0.089000000000     0.113000000000     0.360500000000     0          
C997     C      0.088300000000     0.136500000000     0.385900000000     0          
Br998    Br     0.223200000000     0.098600000000     0.924000000000     0          
O999     O      0.326100000000     0.966430000000     0.878560000000     0          
C1000    C      0.276500000000     0.015200000000     0.877900000000     0          
H1001    H      0.299300000000     0.020800000000     0.884100000000     0          
C1002    C      0.251800000000     0.040000000000     0.877200000000     0          
H1003    H      0.257500000000     0.063100000000     0.882000000000     0          
C1004    C      0.188800000000     0.088600000000     0.890600000000     0          
C1005    C      0.161000000000     0.113000000000     0.889500000000     0          
C1006    C      0.161700000000     0.136500000000     0.864100000000     0          
Br1007   Br     0.223200000000     0.598600000000     0.424000000000     0          
O1008    O      0.326100000000     0.466430000000     0.378560000000     0          
C1009    C      0.276500000000     0.515200000000     0.377900000000     0          
H1010    H      0.299300000000     0.520800000000     0.384100000000     0          
C1011    C      0.251800000000     0.540000000000     0.377200000000     0          
H1012    H      0.257500000000     0.563100000000     0.382000000000     0          
C1013    C      0.188800000000     0.588600000000     0.390600000000     0          
C1014    C      0.161000000000     0.613000000000     0.389500000000     0          
C1015    C      0.161700000000     0.636500000000     0.364100000000     0          
Br1016   Br     0.723200000000     0.098600000000     0.424000000000     0          
O1017    O      0.826100000000     0.966430000000     0.378560000000     0          
C1018    C      0.776500000000     0.015200000000     0.377900000000     0          
H1019    H      0.799300000000     0.020800000000     0.384100000000     0          
C1020    C      0.751800000000     0.040000000000     0.377200000000     0          
H1021    H      0.757500000000     0.063100000000     0.382000000000     0          
C1022    C      0.688800000000     0.088600000000     0.390600000000     0          
C1023    C      0.661000000000     0.113000000000     0.389500000000     0          
C1024    C      0.661700000000     0.136500000000     0.364100000000     0          
O1025    O      0.826100000000     0.466430000000     0.878560000000     0          
C1026    C      0.776500000000     0.515200000000     0.877900000000     0          
H1027    H      0.799300000000     0.520800000000     0.884100000000     0          
C1028    C      0.751800000000     0.540000000000     0.877200000000     0          
H1029    H      0.757500000000     0.563100000000     0.882000000000     0          
O1030    O      0.923900000000     0.783570000000     0.378560000000     0          
C1031    C      0.973500000000     0.734800000000     0.377900000000     0          
H1032    H      0.950700000000     0.729200000000     0.384100000000     0          
C1033    C      0.998200000000     0.710000000000     0.377200000000     0          
H1034    H      0.992500000000     0.686900000000     0.382000000000     0          
Br1035   Br     0.061100000000     0.664300000000     0.337200000000     0          
O1036    O      0.923900000000     0.283570000000     0.878560000000     0          
C1037    C      0.973500000000     0.234800000000     0.877900000000     0          
H1038    H      0.950700000000     0.229200000000     0.884100000000     0          
C1039    C      0.998200000000     0.210000000000     0.877200000000     0          
H1040    H      0.992500000000     0.186900000000     0.882000000000     0          
Br1041   Br     0.061100000000     0.164300000000     0.837200000000     0          
Br1042   Br     0.526800000000     0.651400000000     0.924000000000     0          
O1043    O      0.423900000000     0.783570000000     0.878560000000     0          
C1044    C      0.473500000000     0.734800000000     0.877900000000     0          
H1045    H      0.450700000000     0.729200000000     0.884100000000     0          
C1046    C      0.498200000000     0.710000000000     0.877200000000     0          
H1047    H      0.492500000000     0.686900000000     0.882000000000     0          
C1048    C      0.561200000000     0.661400000000     0.890600000000     0          
C1049    C      0.589000000000     0.637000000000     0.889500000000     0          
C1050    C      0.588300000000     0.613500000000     0.864100000000     0          
Br1051   Br     0.561100000000     0.664300000000     0.837200000000     0          
O1052    O      0.423900000000     0.283570000000     0.378560000000     0          
C1053    C      0.473500000000     0.234800000000     0.377900000000     0          
H1054    H      0.450700000000     0.229200000000     0.384100000000     0          
C1055    C      0.498200000000     0.210000000000     0.377200000000     0          
H1056    H      0.492500000000     0.186900000000     0.382000000000     0          
Br1057   Br     0.561100000000     0.164300000000     0.337200000000     0          
O1058    O      0.826100000000     0.283570000000     0.871440000000     0          
C1059    C      0.776500000000     0.234800000000     0.872100000000     0          
H1060    H      0.799300000000     0.229200000000     0.865900000000     0          
C1061    C      0.751800000000     0.210000000000     0.872800000000     0          
H1062    H      0.757500000000     0.186900000000     0.868000000000     0          
Br1063   Br     0.688900000000     0.164300000000     0.912800000000     0          
O1064    O      0.826100000000     0.783570000000     0.371440000000     0          
C1065    C      0.776500000000     0.734800000000     0.372100000000     0          
H1066    H      0.799300000000     0.729200000000     0.365900000000     0          
C1067    C      0.751800000000     0.710000000000     0.372800000000     0          
H1068    H      0.757500000000     0.686900000000     0.368000000000     0          
Br1069   Br     0.688900000000     0.664300000000     0.412800000000     0          
O1070    O      0.326100000000     0.283570000000     0.371440000000     0          
C1071    C      0.276500000000     0.234800000000     0.372100000000     0          
H1072    H      0.299300000000     0.229200000000     0.365900000000     0          
C1073    C      0.251800000000     0.210000000000     0.372800000000     0          
H1074    H      0.257500000000     0.186900000000     0.368000000000     0          
Br1075   Br     0.188900000000     0.164300000000     0.412800000000     0          
O1076    O      0.326100000000     0.783570000000     0.871440000000     0          
C1077    C      0.276500000000     0.734800000000     0.872100000000     0          
H1078    H      0.299300000000     0.729200000000     0.865900000000     0          
C1079    C      0.251800000000     0.710000000000     0.872800000000     0          
H1080    H      0.257500000000     0.686900000000     0.868000000000     0          
Br1081   Br     0.188900000000     0.664300000000     0.912800000000     0          
O1082    O      0.673900000000     0.121440000000     0.033570000000     0          
C1083    C      0.723500000000     0.122100000000     0.984800000000     0          
H1084    H      0.700700000000     0.115900000000     0.979200000000     0          
C1085    C      0.748200000000     0.122800000000     0.960000000000     0          
H1086    H      0.742500000000     0.118000000000     0.936900000000     0          
Br1087   Br     0.811100000000     0.162800000000     0.914300000000     0          
O1088    O      0.673900000000     0.621440000000     0.533570000000     0          
C1089    C      0.723500000000     0.622100000000     0.484800000000     0          
H1090    H      0.700700000000     0.615900000000     0.479200000000     0          
C1091    C      0.748200000000     0.622800000000     0.460000000000     0          
H1092    H      0.742500000000     0.618000000000     0.436900000000     0          
Br1093   Br     0.811100000000     0.662800000000     0.414300000000     0          
O1094    O      0.173900000000     0.121440000000     0.533570000000     0          
C1095    C      0.223500000000     0.122100000000     0.484800000000     0          
H1096    H      0.200700000000     0.115900000000     0.479200000000     0          
C1097    C      0.248200000000     0.122800000000     0.460000000000     0          
H1098    H      0.242500000000     0.118000000000     0.436900000000     0          
O1099    O      0.173900000000     0.621440000000     0.033570000000     0          
C1100    C      0.223500000000     0.622100000000     0.984800000000     0          
H1101    H      0.200700000000     0.615900000000     0.979200000000     0          
C1102    C      0.248200000000     0.622800000000     0.960000000000     0          
H1103    H      0.242500000000     0.618000000000     0.936900000000     0          
Br1104   Br     0.473200000000     0.674000000000     0.401400000000     0          
O1105    O      0.576100000000     0.628560000000     0.533570000000     0          
C1106    C      0.526500000000     0.627900000000     0.484800000000     0          
H1107    H      0.549300000000     0.634100000000     0.479200000000     0          
C1108    C      0.501800000000     0.627200000000     0.460000000000     0          
H1109    H      0.507500000000     0.632000000000     0.436900000000     0          
C1110    C      0.438800000000     0.640600000000     0.411400000000     0          
C1111    C      0.411000000000     0.639500000000     0.387000000000     0          
C1112    C      0.411700000000     0.614100000000     0.363500000000     0          
Br1113   Br     0.473200000000     0.174000000000     0.901400000000     0          
O1114    O      0.576100000000     0.128560000000     0.033570000000     0          
C1115    C      0.526500000000     0.127900000000     0.984800000000     0          
H1116    H      0.549300000000     0.134100000000     0.979200000000     0          
C1117    C      0.501800000000     0.127200000000     0.960000000000     0          
H1118    H      0.507500000000     0.132000000000     0.936900000000     0          
C1119    C      0.438800000000     0.140600000000     0.911400000000     0          
C1120    C      0.411000000000     0.139500000000     0.887000000000     0          
C1121    C      0.411700000000     0.114100000000     0.863500000000     0          
Br1122   Br     0.973200000000     0.674000000000     0.901400000000     0          
O1123    O      0.076100000000     0.628560000000     0.033570000000     0          
C1124    C      0.026500000000     0.627900000000     0.984800000000     0          
H1125    H      0.049300000000     0.634100000000     0.979200000000     0          
C1126    C      0.001800000000     0.627200000000     0.960000000000     0          
H1127    H      0.007500000000     0.632000000000     0.936900000000     0          
C1128    C      0.938800000000     0.640600000000     0.911400000000     0          
C1129    C      0.911000000000     0.639500000000     0.887000000000     0          
C1130    C      0.911700000000     0.614100000000     0.863500000000     0          
Br1131   Br     0.973200000000     0.174000000000     0.401400000000     0          
O1132    O      0.076100000000     0.128560000000     0.533570000000     0          
C1133    C      0.026500000000     0.127900000000     0.484800000000     0          
H1134    H      0.049300000000     0.134100000000     0.479200000000     0          
C1135    C      0.001800000000     0.127200000000     0.460000000000     0          
H1136    H      0.007500000000     0.132000000000     0.436900000000     0          
C1137    C      0.938800000000     0.140600000000     0.411400000000     0          
C1138    C      0.911000000000     0.139500000000     0.387000000000     0          
C1139    C      0.911700000000     0.114100000000     0.363500000000     0          
O1140    O      0.173900000000     0.128560000000     0.716430000000     0          
C1141    C      0.223500000000     0.127900000000     0.765200000000     0          
H1142    H      0.200700000000     0.134100000000     0.770800000000     0          
C1143    C      0.248200000000     0.127200000000     0.790000000000     0          
H1144    H      0.242500000000     0.132000000000     0.813100000000     0          
Br1145   Br     0.311100000000     0.087200000000     0.835700000000     0          
O1146    O      0.173900000000     0.628560000000     0.216430000000     0          
C1147    C      0.223500000000     0.627900000000     0.265200000000     0          
H1148    H      0.200700000000     0.634100000000     0.270800000000     0          
C1149    C      0.248200000000     0.627200000000     0.290000000000     0          
H1150    H      0.242500000000     0.632000000000     0.313100000000     0          
Br1151   Br     0.311100000000     0.587200000000     0.335700000000     0          
O1152    O      0.673900000000     0.128560000000     0.216430000000     0          
C1153    C      0.723500000000     0.127900000000     0.265200000000     0          
H1154    H      0.700700000000     0.134100000000     0.270800000000     0          
C1155    C      0.748200000000     0.127200000000     0.290000000000     0          
H1156    H      0.742500000000     0.132000000000     0.313100000000     0          
Br1157   Br     0.811100000000     0.087200000000     0.335700000000     0          
O1158    O      0.673900000000     0.628560000000     0.716430000000     0          
C1159    C      0.723500000000     0.627900000000     0.765200000000     0          
H1160    H      0.700700000000     0.634100000000     0.770800000000     0          
C1161    C      0.748200000000     0.627200000000     0.790000000000     0          
H1162    H      0.742500000000     0.632000000000     0.813100000000     0          
Br1163   Br     0.973200000000     0.576000000000     0.348600000000     0          
O1164    O      0.076100000000     0.621440000000     0.216430000000     0          
C1165    C      0.026500000000     0.622100000000     0.265200000000     0          
H1166    H      0.049300000000     0.615900000000     0.270800000000     0          
C1167    C      0.001800000000     0.622800000000     0.290000000000     0          
H1168    H      0.007500000000     0.618000000000     0.313100000000     0          
C1169    C      0.938800000000     0.609400000000     0.338600000000     0          
C1170    C      0.911000000000     0.610500000000     0.363000000000     0          
C1171    C      0.911700000000     0.635900000000     0.386500000000     0          
Br1172   Br     0.973200000000     0.076000000000     0.848600000000     0          
O1173    O      0.076100000000     0.121440000000     0.716430000000     0          
C1174    C      0.026500000000     0.122100000000     0.765200000000     0          
H1175    H      0.049300000000     0.115900000000     0.770800000000     0          
C1176    C      0.001800000000     0.122800000000     0.790000000000     0          
H1177    H      0.007500000000     0.118000000000     0.813100000000     0          
C1178    C      0.938800000000     0.109400000000     0.838600000000     0          
C1179    C      0.911000000000     0.110500000000     0.863000000000     0          
C1180    C      0.911700000000     0.135900000000     0.886500000000     0          
Br1181   Br     0.473200000000     0.576000000000     0.848600000000     0          
O1182    O      0.576100000000     0.621440000000     0.716430000000     0          
C1183    C      0.526500000000     0.622100000000     0.765200000000     0          
H1184    H      0.549300000000     0.615900000000     0.770800000000     0          
C1185    C      0.501800000000     0.622800000000     0.790000000000     0          
H1186    H      0.507500000000     0.618000000000     0.813100000000     0          
C1187    C      0.438800000000     0.609400000000     0.838600000000     0          
C1188    C      0.411000000000     0.610500000000     0.863000000000     0          
C1189    C      0.411700000000     0.635900000000     0.886500000000     0          
Br1190   Br     0.438900000000     0.662800000000     0.835700000000     0          
Br1191   Br     0.473200000000     0.076000000000     0.348600000000     0          
O1192    O      0.576100000000     0.121440000000     0.216430000000     0          
C1193    C      0.526500000000     0.122100000000     0.265200000000     0          
H1194    H      0.549300000000     0.115900000000     0.270800000000     0          
C1195    C      0.501800000000     0.122800000000     0.290000000000     0          
H1196    H      0.507500000000     0.118000000000     0.313100000000     0          
C1197    C      0.438800000000     0.109400000000     0.338600000000     0          
C1198    C      0.411000000000     0.110500000000     0.363000000000     0          
C1199    C      0.411700000000     0.135900000000     0.386500000000     0          
Br1200   Br     0.438900000000     0.162800000000     0.335700000000     0          
Br1201   Br     0.576000000000     0.348600000000     0.973200000000     0          
O1202    O      0.621440000000     0.216430000000     0.076100000000     0          
C1203    C      0.622100000000     0.265200000000     0.026500000000     0          
H1204    H      0.615900000000     0.270800000000     0.049300000000     0          
C1205    C      0.622800000000     0.290000000000     0.001800000000     0          
H1206    H      0.618000000000     0.313100000000     0.007500000000     0          
C1207    C      0.609400000000     0.338600000000     0.938800000000     0          
C1208    C      0.610500000000     0.363000000000     0.911000000000     0          
C1209    C      0.635900000000     0.386500000000     0.911700000000     0          
Br1210   Br     0.576000000000     0.848600000000     0.473200000000     0          
O1211    O      0.621440000000     0.716430000000     0.576100000000     0          
C1212    C      0.622100000000     0.765200000000     0.526500000000     0          
H1213    H      0.615900000000     0.770800000000     0.549300000000     0          
C1214    C      0.622800000000     0.790000000000     0.501800000000     0          
H1215    H      0.618000000000     0.813100000000     0.507500000000     0          
C1216    C      0.609400000000     0.838600000000     0.438800000000     0          
C1217    C      0.610500000000     0.863000000000     0.411000000000     0          
C1218    C      0.635900000000     0.886500000000     0.411700000000     0          
Br1219   Br     0.076000000000     0.348600000000     0.473200000000     0          
O1220    O      0.121440000000     0.216430000000     0.576100000000     0          
C1221    C      0.122100000000     0.265200000000     0.526500000000     0          
H1222    H      0.115900000000     0.270800000000     0.549300000000     0          
C1223    C      0.122800000000     0.290000000000     0.501800000000     0          
H1224    H      0.118000000000     0.313100000000     0.507500000000     0          
C1225    C      0.109400000000     0.338600000000     0.438800000000     0          
C1226    C      0.110500000000     0.363000000000     0.411000000000     0          
C1227    C      0.135900000000     0.386500000000     0.411700000000     0          
Br1228   Br     0.076000000000     0.848600000000     0.973200000000     0          
O1229    O      0.121440000000     0.716430000000     0.076100000000     0          
C1230    C      0.122100000000     0.765200000000     0.026500000000     0          
H1231    H      0.115900000000     0.770800000000     0.049300000000     0          
C1232    C      0.122800000000     0.790000000000     0.001800000000     0          
H1233    H      0.118000000000     0.813100000000     0.007500000000     0          
C1234    C      0.109400000000     0.838600000000     0.938800000000     0          
C1235    C      0.110500000000     0.863000000000     0.911000000000     0          
C1236    C      0.135900000000     0.886500000000     0.911700000000     0          
Br1237   Br     0.174000000000     0.848600000000     0.276800000000     0          
O1238    O      0.128560000000     0.716430000000     0.173900000000     0          
C1239    C      0.127900000000     0.765200000000     0.223500000000     0          
H1240    H      0.134100000000     0.770800000000     0.200700000000     0          
C1241    C      0.127200000000     0.790000000000     0.248200000000     0          
H1242    H      0.132000000000     0.813100000000     0.242500000000     0          
C1243    C      0.140600000000     0.838600000000     0.311200000000     0          
C1244    C      0.139500000000     0.863000000000     0.339000000000     0          
C1245    C      0.114100000000     0.886500000000     0.338300000000     0          
Br1246   Br     0.174000000000     0.348600000000     0.776800000000     0          
O1247    O      0.128560000000     0.216430000000     0.673900000000     0          
C1248    C      0.127900000000     0.265200000000     0.723500000000     0          
H1249    H      0.134100000000     0.270800000000     0.700700000000     0          
C1250    C      0.127200000000     0.290000000000     0.748200000000     0          
H1251    H      0.132000000000     0.313100000000     0.742500000000     0          
C1252    C      0.140600000000     0.338600000000     0.811200000000     0          
C1253    C      0.139500000000     0.363000000000     0.839000000000     0          
C1254    C      0.114100000000     0.386500000000     0.838300000000     0          
Br1255   Br     0.674000000000     0.848600000000     0.776800000000     0          
O1256    O      0.628560000000     0.716430000000     0.673900000000     0          
C1257    C      0.627900000000     0.765200000000     0.723500000000     0          
H1258    H      0.634100000000     0.770800000000     0.700700000000     0          
C1259    C      0.627200000000     0.790000000000     0.748200000000     0          
H1260    H      0.632000000000     0.813100000000     0.742500000000     0          
C1261    C      0.640600000000     0.838600000000     0.811200000000     0          
C1262    C      0.639500000000     0.863000000000     0.839000000000     0          
C1263    C      0.614100000000     0.886500000000     0.838300000000     0          
Br1264   Br     0.674000000000     0.348600000000     0.276800000000     0          
O1265    O      0.628560000000     0.216430000000     0.173900000000     0          
C1266    C      0.627900000000     0.265200000000     0.223500000000     0          
H1267    H      0.634100000000     0.270800000000     0.200700000000     0          
C1268    C      0.627200000000     0.290000000000     0.248200000000     0          
H1269    H      0.632000000000     0.313100000000     0.242500000000     0          
C1270    C      0.640600000000     0.338600000000     0.311200000000     0          
C1271    C      0.639500000000     0.363000000000     0.339000000000     0          
C1272    C      0.614100000000     0.386500000000     0.338300000000     0          
O1273    O      0.628560000000     0.533570000000     0.576100000000     0          
C1274    C      0.627900000000     0.484800000000     0.526500000000     0          
H1275    H      0.634100000000     0.479200000000     0.549300000000     0          
C1276    C      0.627200000000     0.460000000000     0.501800000000     0          
H1277    H      0.632000000000     0.436900000000     0.507500000000     0          
Br1278   Br     0.587200000000     0.414300000000     0.438900000000     0          
O1279    O      0.628560000000     0.033570000000     0.076100000000     0          
C1280    C      0.627900000000     0.984800000000     0.026500000000     0          
H1281    H      0.634100000000     0.979200000000     0.049300000000     0          
C1282    C      0.627200000000     0.960000000000     0.001800000000     0          
H1283    H      0.632000000000     0.936900000000     0.007500000000     0          
Br1284   Br     0.587200000000     0.914300000000     0.938900000000     0          
O1285    O      0.128560000000     0.533570000000     0.076100000000     0          
C1286    C      0.127900000000     0.484800000000     0.026500000000     0          
H1287    H      0.134100000000     0.479200000000     0.049300000000     0          
C1288    C      0.127200000000     0.460000000000     0.001800000000     0          
H1289    H      0.132000000000     0.436900000000     0.007500000000     0          
Br1290   Br     0.087200000000     0.414300000000     0.938900000000     0          
O1291    O      0.128560000000     0.033570000000     0.576100000000     0          
C1292    C      0.127900000000     0.984800000000     0.526500000000     0          
H1293    H      0.134100000000     0.979200000000     0.549300000000     0          
C1294    C      0.127200000000     0.960000000000     0.501800000000     0          
H1295    H      0.132000000000     0.936900000000     0.507500000000     0          
Br1296   Br     0.087200000000     0.914300000000     0.438900000000     0          
O1297    O      0.121440000000     0.033570000000     0.673900000000     0          
C1298    C      0.122100000000     0.984800000000     0.723500000000     0          
H1299    H      0.115900000000     0.979200000000     0.700700000000     0          
C1300    C      0.122800000000     0.960000000000     0.748200000000     0          
H1301    H      0.118000000000     0.936900000000     0.742500000000     0          
Br1302   Br     0.162800000000     0.914300000000     0.811100000000     0          
O1303    O      0.121440000000     0.533570000000     0.173900000000     0          
C1304    C      0.122100000000     0.484800000000     0.223500000000     0          
H1305    H      0.115900000000     0.479200000000     0.200700000000     0          
C1306    C      0.122800000000     0.460000000000     0.248200000000     0          
H1307    H      0.118000000000     0.436900000000     0.242500000000     0          
Br1308   Br     0.162800000000     0.414300000000     0.311100000000     0          
O1309    O      0.621440000000     0.033570000000     0.173900000000     0          
C1310    C      0.622100000000     0.984800000000     0.223500000000     0          
H1311    H      0.615900000000     0.979200000000     0.200700000000     0          
C1312    C      0.622800000000     0.960000000000     0.248200000000     0          
H1313    H      0.618000000000     0.936900000000     0.242500000000     0          
Br1314   Br     0.662800000000     0.914300000000     0.311100000000     0          
O1315    O      0.621440000000     0.533570000000     0.673900000000     0          
C1316    C      0.622100000000     0.484800000000     0.723500000000     0          
H1317    H      0.615900000000     0.479200000000     0.700700000000     0          
C1318    C      0.622800000000     0.460000000000     0.748200000000     0          
H1319    H      0.618000000000     0.436900000000     0.742500000000     0          
Br1320   Br     0.662800000000     0.414300000000     0.811100000000     0          
O1321    O      0.716430000000     0.173900000000     0.128560000000     0          
C1322    C      0.765200000000     0.223500000000     0.127900000000     0          
H1323    H      0.770800000000     0.200700000000     0.134100000000     0          
C1324    C      0.790000000000     0.248200000000     0.127200000000     0          
H1325    H      0.813100000000     0.242500000000     0.132000000000     0          
Br1326   Br     0.835700000000     0.311100000000     0.087200000000     0          
Br1327   Br     0.848600000000     0.776800000000     0.674000000000     0          
O1328    O      0.716430000000     0.673900000000     0.628560000000     0          
C1329    C      0.765200000000     0.723500000000     0.627900000000     0          
H1330    H      0.770800000000     0.700700000000     0.634100000000     0          
C1331    C      0.790000000000     0.748200000000     0.627200000000     0          
H1332    H      0.813100000000     0.742500000000     0.632000000000     0          
C1333    C      0.838600000000     0.811200000000     0.640600000000     0          
C1334    C      0.863000000000     0.839000000000     0.639500000000     0          
C1335    C      0.886500000000     0.838300000000     0.614100000000     0          
O1336    O      0.216430000000     0.173900000000     0.628560000000     0          
C1337    C      0.265200000000     0.223500000000     0.627900000000     0          
H1338    H      0.270800000000     0.200700000000     0.634100000000     0          
C1339    C      0.290000000000     0.248200000000     0.627200000000     0          
H1340    H      0.313100000000     0.242500000000     0.632000000000     0          
Br1341   Br     0.335700000000     0.311100000000     0.587200000000     0          
O1342    O      0.216430000000     0.673900000000     0.128560000000     0          
C1343    C      0.265200000000     0.723500000000     0.127900000000     0          
H1344    H      0.270800000000     0.700700000000     0.134100000000     0          
C1345    C      0.290000000000     0.748200000000     0.127200000000     0          
H1346    H      0.313100000000     0.742500000000     0.132000000000     0          
Br1347   Br     0.335700000000     0.811100000000     0.087200000000     0          
Br1348   Br     0.348600000000     0.973200000000     0.576000000000     0          
O1349    O      0.216430000000     0.076100000000     0.621440000000     0          
C1350    C      0.265200000000     0.026500000000     0.622100000000     0          
H1351    H      0.270800000000     0.049300000000     0.615900000000     0          
C1352    C      0.290000000000     0.001800000000     0.622800000000     0          
H1353    H      0.313100000000     0.007500000000     0.618000000000     0          
C1354    C      0.338600000000     0.938800000000     0.609400000000     0          
C1355    C      0.363000000000     0.911000000000     0.610500000000     0          
C1356    C      0.386500000000     0.911700000000     0.635900000000     0          
Br1357   Br     0.335700000000     0.938900000000     0.662800000000     0          
Br1358   Br     0.348600000000     0.473200000000     0.076000000000     0          
O1359    O      0.216430000000     0.576100000000     0.121440000000     0          
C1360    C      0.265200000000     0.526500000000     0.122100000000     0          
H1361    H      0.270800000000     0.549300000000     0.115900000000     0          
C1362    C      0.290000000000     0.501800000000     0.122800000000     0          
H1363    H      0.313100000000     0.507500000000     0.118000000000     0          
C1364    C      0.338600000000     0.438800000000     0.109400000000     0          
C1365    C      0.363000000000     0.411000000000     0.110500000000     0          
C1366    C      0.386500000000     0.411700000000     0.135900000000     0          
Br1367   Br     0.848600000000     0.973200000000     0.076000000000     0          
O1368    O      0.716430000000     0.076100000000     0.121440000000     0          
C1369    C      0.765200000000     0.026500000000     0.122100000000     0          
H1370    H      0.770800000000     0.049300000000     0.115900000000     0          
C1371    C      0.790000000000     0.001800000000     0.122800000000     0          
H1372    H      0.813100000000     0.007500000000     0.118000000000     0          
C1373    C      0.838600000000     0.938800000000     0.109400000000     0          
C1374    C      0.863000000000     0.911000000000     0.110500000000     0          
C1375    C      0.886500000000     0.911700000000     0.135900000000     0          
Br1376   Br     0.848600000000     0.473200000000     0.576000000000     0          
O1377    O      0.716430000000     0.576100000000     0.621440000000     0          
C1378    C      0.765200000000     0.526500000000     0.622100000000     0          
H1379    H      0.770800000000     0.549300000000     0.615900000000     0          
C1380    C      0.790000000000     0.501800000000     0.622800000000     0          
H1381    H      0.813100000000     0.507500000000     0.618000000000     0          
C1382    C      0.838600000000     0.438800000000     0.609400000000     0          
C1383    C      0.863000000000     0.411000000000     0.610500000000     0          
C1384    C      0.886500000000     0.411700000000     0.635900000000     0          
O1385    O      0.033570000000     0.673900000000     0.121440000000     0          
C1386    C      0.984800000000     0.723500000000     0.122100000000     0          
H1387    H      0.979200000000     0.700700000000     0.115900000000     0          
C1388    C      0.960000000000     0.748200000000     0.122800000000     0          
H1389    H      0.936900000000     0.742500000000     0.118000000000     0          
Br1390   Br     0.914300000000     0.811100000000     0.162800000000     0          
O1391    O      0.033570000000     0.173900000000     0.621440000000     0          
C1392    C      0.984800000000     0.223500000000     0.622100000000     0          
H1393    H      0.979200000000     0.200700000000     0.615900000000     0          
C1394    C      0.960000000000     0.248200000000     0.622800000000     0          
H1395    H      0.936900000000     0.242500000000     0.618000000000     0          
Br1396   Br     0.914300000000     0.311100000000     0.662800000000     0          
O1397    O      0.533570000000     0.673900000000     0.621440000000     0          
C1398    C      0.484800000000     0.723500000000     0.622100000000     0          
H1399    H      0.479200000000     0.700700000000     0.615900000000     0          
C1400    C      0.460000000000     0.748200000000     0.622800000000     0          
H1401    H      0.436900000000     0.742500000000     0.618000000000     0          
O1402    O      0.533570000000     0.173900000000     0.121440000000     0          
C1403    C      0.484800000000     0.223500000000     0.122100000000     0          
H1404    H      0.479200000000     0.200700000000     0.115900000000     0          
C1405    C      0.460000000000     0.248200000000     0.122800000000     0          
H1406    H      0.436900000000     0.242500000000     0.118000000000     0          
Br1407   Br     0.414300000000     0.311100000000     0.162800000000     0          
Br1408   Br     0.401400000000     0.473200000000     0.674000000000     0          
O1409    O      0.533570000000     0.576100000000     0.628560000000     0          
C1410    C      0.484800000000     0.526500000000     0.627900000000     0          
H1411    H      0.479200000000     0.549300000000     0.634100000000     0          
C1412    C      0.460000000000     0.501800000000     0.627200000000     0          
H1413    H      0.436900000000     0.507500000000     0.632000000000     0          
C1414    C      0.411400000000     0.438800000000     0.640600000000     0          
C1415    C      0.387000000000     0.411000000000     0.639500000000     0          
C1416    C      0.363500000000     0.411700000000     0.614100000000     0          
Br1417   Br     0.401400000000     0.973200000000     0.174000000000     0          
O1418    O      0.533570000000     0.076100000000     0.128560000000     0          
C1419    C      0.484800000000     0.026500000000     0.127900000000     0          
H1420    H      0.479200000000     0.049300000000     0.134100000000     0          
C1421    C      0.460000000000     0.001800000000     0.127200000000     0          
H1422    H      0.436900000000     0.007500000000     0.132000000000     0          
C1423    C      0.411400000000     0.938800000000     0.140600000000     0          
C1424    C      0.387000000000     0.911000000000     0.139500000000     0          
C1425    C      0.363500000000     0.911700000000     0.114100000000     0          
Br1426   Br     0.901400000000     0.473200000000     0.174000000000     0          
O1427    O      0.033570000000     0.576100000000     0.128560000000     0          
C1428    C      0.984800000000     0.526500000000     0.127900000000     0          
H1429    H      0.979200000000     0.549300000000     0.134100000000     0          
C1430    C      0.960000000000     0.501800000000     0.127200000000     0          
H1431    H      0.936900000000     0.507500000000     0.132000000000     0          
C1432    C      0.911400000000     0.438800000000     0.140600000000     0          
C1433    C      0.887000000000     0.411000000000     0.139500000000     0          
C1434    C      0.863500000000     0.411700000000     0.114100000000     0          
O1435    O      0.033570000000     0.076100000000     0.628560000000     0          
C1436    C      0.984800000000     0.026500000000     0.627900000000     0          
H1437    H      0.979200000000     0.049300000000     0.634100000000     0          
C1438    C      0.960000000000     0.001800000000     0.627200000000     0          
H1439    H      0.936900000000     0.007500000000     0.632000000000     0          
Br1440   Br     0.914300000000     0.938900000000     0.587200000000     0          
Zr1441   Zr     0.625000000000     0.625000000000     0.561780000000     0          
Zr1442   Zr     0.125000000000     0.625000000000     0.061780000000     0          
Zr1443   Zr     0.125000000000     0.125000000000     0.561780000000     0          
Zr1444   Zr     0.625000000000     0.125000000000     0.188220000000     0          
Zr1445   Zr     0.625000000000     0.625000000000     0.688220000000     0          
Zr1446   Zr     0.125000000000     0.125000000000     0.688220000000     0          
Zr1447   Zr     0.561780000000     0.625000000000     0.625000000000     0          
Zr1448   Zr     0.561780000000     0.125000000000     0.125000000000     0          
Zr1449   Zr     0.061780000000     0.125000000000     0.625000000000     0          
Zr1450   Zr     0.188220000000     0.625000000000     0.125000000000     0          
Zr1451   Zr     0.688220000000     0.125000000000     0.125000000000     0          
Zr1452   Zr     0.688220000000     0.625000000000     0.625000000000     0          
Zr1453   Zr     0.625000000000     0.561780000000     0.625000000000     0          
Zr1454   Zr     0.625000000000     0.061780000000     0.125000000000     0          
Zr1455   Zr     0.125000000000     0.561780000000     0.125000000000     0          
Zr1456   Zr     0.125000000000     0.188220000000     0.625000000000     0          
Zr1457   Zr     0.125000000000     0.688220000000     0.125000000000     0          
Zr1458   Zr     0.375000000000     0.875000000000     0.938220000000     0          
Zr1459   Zr     0.375000000000     0.375000000000     0.438220000000     0          
Zr1460   Zr     0.875000000000     0.875000000000     0.311780000000     0          
Zr1461   Zr     0.375000000000     0.375000000000     0.311780000000     0          
Zr1462   Zr     0.875000000000     0.375000000000     0.811780000000     0          
Zr1463   Zr     0.375000000000     0.811780000000     0.875000000000     0          
Zr1464   Zr     0.375000000000     0.311780000000     0.375000000000     0          
Zr1465   Zr     0.875000000000     0.311780000000     0.875000000000     0          
Zr1466   Zr     0.375000000000     0.438220000000     0.375000000000     0          
Zr1467   Zr     0.875000000000     0.938220000000     0.375000000000     0          
Zr1468   Zr     0.875000000000     0.438220000000     0.875000000000     0          
Zr1469   Zr     0.311780000000     0.875000000000     0.875000000000     0          
Zr1470   Zr     0.311780000000     0.375000000000     0.375000000000     0          
Zr1471   Zr     0.811780000000     0.875000000000     0.375000000000     0          
Zr1472   Zr     0.938220000000     0.375000000000     0.875000000000     0          
Zr1473   Zr     0.438220000000     0.375000000000     0.375000000000     0          
Zr1474   Zr     0.438220000000     0.875000000000     0.875000000000     0          
Zr1475   Zr     0.875000000000     0.375000000000     0.938220000000     0          
Zr1476   Zr     0.875000000000     0.875000000000     0.438220000000     0          
Zr1477   Zr     0.375000000000     0.875000000000     0.811780000000     0          
Zr1478   Zr     0.938220000000     0.875000000000     0.375000000000     0          
Zr1479   Zr     0.811780000000     0.375000000000     0.875000000000     0          
Zr1480   Zr     0.375000000000     0.938220000000     0.875000000000     0          
Zr1481   Zr     0.875000000000     0.811780000000     0.375000000000     0          
Zr1482   Zr     0.625000000000     0.125000000000     0.061780000000     0          
Zr1483   Zr     0.125000000000     0.625000000000     0.188220000000     0          
Zr1484   Zr     0.625000000000     0.188220000000     0.125000000000     0          
Zr1485   Zr     0.625000000000     0.688220000000     0.625000000000     0          
Zr1486   Zr     0.125000000000     0.061780000000     0.625000000000     0          
Zr1487   Zr     0.188220000000     0.125000000000     0.625000000000     0          
Zr1488   Zr     0.061780000000     0.625000000000     0.125000000000     0          
O1489    O      0.658260000000     0.591740000000     0.591740000000     0          
O1490    O      0.091740000000     0.658260000000     0.091740000000     0          
O1491    O      0.591740000000     0.091740000000     0.158260000000     0          
O1492    O      0.158260000000     0.158260000000     0.658260000000     0          
O1493    O      0.591740000000     0.658260000000     0.591740000000     0          
O1494    O      0.091740000000     0.091740000000     0.658260000000     0          
O1495    O      0.158260000000     0.591740000000     0.091740000000     0          
O1496    O      0.658260000000     0.158260000000     0.158260000000     0          
O1497    O      0.658260000000     0.658260000000     0.658260000000     0          
O1498    O      0.591740000000     0.591740000000     0.658260000000     0          
O1499    O      0.658260000000     0.091740000000     0.091740000000     0          
O1500    O      0.091740000000     0.158260000000     0.591740000000     0          
O1501    O      0.158260000000     0.658260000000     0.158260000000     0          
O1502    O      0.341740000000     0.908260000000     0.908260000000     0          
O1503    O      0.408260000000     0.341740000000     0.408260000000     0          
O1504    O      0.841740000000     0.841740000000     0.341740000000     0          
O1505    O      0.908260000000     0.408260000000     0.841740000000     0          
O1506    O      0.408260000000     0.841740000000     0.908260000000     0          
O1507    O      0.841740000000     0.341740000000     0.841740000000     0          
O1508    O      0.341740000000     0.408260000000     0.408260000000     0          
O1509    O      0.908260000000     0.908260000000     0.341740000000     0          
O1510    O      0.341740000000     0.841740000000     0.841740000000     0          
O1511    O      0.341740000000     0.341740000000     0.341740000000     0          
O1512    O      0.841740000000     0.908260000000     0.408260000000     0          
O1513    O      0.908260000000     0.341740000000     0.908260000000     0          
O1514    O      0.408260000000     0.408260000000     0.341740000000     0          
O1515    O      0.408260000000     0.908260000000     0.841740000000     0          
O1516    O      0.841740000000     0.408260000000     0.908260000000     0          
O1517    O      0.908260000000     0.841740000000     0.408260000000     0          
O1518    O      0.091740000000     0.591740000000     0.158260000000     0          
O1519    O      0.591740000000     0.158260000000     0.091740000000     0          
O1520    O      0.158260000000     0.091740000000     0.591740000000     0          
O1521    O      0.599700000000     0.599700000000     0.599700000000     0          
O1522    O      0.599700000000     0.099700000000     0.099700000000     0          
O1523    O      0.099700000000     0.599700000000     0.099700000000     0          
O1524    O      0.099700000000     0.099700000000     0.599700000000     0          
O1525    O      0.150300000000     0.650300000000     0.099700000000     0          
O1526    O      0.150300000000     0.150300000000     0.599700000000     0          
O1527    O      0.650300000000     0.099700000000     0.150300000000     0          
O1528    O      0.650300000000     0.599700000000     0.650300000000     0          
O1529    O      0.150300000000     0.599700000000     0.150300000000     0          
O1530    O      0.099700000000     0.150300000000     0.650300000000     0          
O1531    O      0.599700000000     0.150300000000     0.150300000000     0          
O1532    O      0.349700000000     0.849700000000     0.900300000000     0          
O1533    O      0.349700000000     0.349700000000     0.400300000000     0          
O1534    O      0.400300000000     0.400300000000     0.400300000000     0          
O1535    O      0.400300000000     0.900300000000     0.900300000000     0          
O1536    O      0.900300000000     0.400300000000     0.900300000000     0          
O1537    O      0.900300000000     0.900300000000     0.400300000000     0          
O1538    O      0.849700000000     0.900300000000     0.349700000000     0          
O1539    O      0.849700000000     0.400300000000     0.849700000000     0          
O1540    O      0.349700000000     0.400300000000     0.349700000000     0          
O1541    O      0.900300000000     0.349700000000     0.849700000000     0          
O1542    O      0.400300000000     0.349700000000     0.349700000000     0          
O1543    O      0.849700000000     0.349700000000     0.900300000000     0          
O1544    O      0.849700000000     0.849700000000     0.400300000000     0          
O1545    O      0.349700000000     0.900300000000     0.849700000000     0          
O1546    O      0.900300000000     0.849700000000     0.349700000000     0          
O1547    O      0.400300000000     0.849700000000     0.849700000000     0          
O1548    O      0.650300000000     0.150300000000     0.099700000000     0          
O1549    O      0.650300000000     0.650300000000     0.599700000000     0          
O1550    O      0.150300000000     0.099700000000     0.650300000000     0          
O1551    O      0.099700000000     0.650300000000     0.150300000000     0          
O1552    O      0.599700000000     0.650300000000     0.650300000000     0          
C1553    C      0.619300000000     0.544500000000     0.544500000000     0          
C1554    C      0.619500000000     0.517800000000     0.517800000000     0          
C1555    C      0.619500000000     0.468700000000     0.468700000000     0          
C1556    C      0.627500000000     0.442300000000     0.442300000000     0          
C1557    C      0.664800000000     0.387610000000     0.387610000000     0          
C1558    C      0.619300000000     0.044500000000     0.044500000000     0          
C1559    C      0.619500000000     0.017800000000     0.017800000000     0          
C1560    C      0.619500000000     0.968700000000     0.968700000000     0          
C1561    C      0.627500000000     0.942300000000     0.942300000000     0          
C1562    C      0.664800000000     0.887610000000     0.887610000000     0          
C1563    C      0.119300000000     0.544500000000     0.044500000000     0          
C1564    C      0.119500000000     0.517800000000     0.017800000000     0          
C1565    C      0.119500000000     0.468700000000     0.968700000000     0          
C1566    C      0.127500000000     0.442300000000     0.942300000000     0          
C1567    C      0.164800000000     0.387610000000     0.887610000000     0          
C1568    C      0.119300000000     0.044500000000     0.544500000000     0          
C1569    C      0.119500000000     0.017800000000     0.517800000000     0          
C1570    C      0.119500000000     0.968700000000     0.468700000000     0          
C1571    C      0.127500000000     0.942300000000     0.442300000000     0          
C1572    C      0.164800000000     0.887610000000     0.387610000000     0          
C1573    C      0.130700000000     0.705500000000     0.044500000000     0          
C1574    C      0.130500000000     0.732200000000     0.017800000000     0          
C1575    C      0.130500000000     0.781300000000     0.968700000000     0          
C1576    C      0.122500000000     0.807700000000     0.942300000000     0          
C1577    C      0.085200000000     0.862390000000     0.887610000000     0          
C1578    C      0.130700000000     0.205500000000     0.544500000000     0          
C1579    C      0.130500000000     0.232200000000     0.517800000000     0          
C1580    C      0.130500000000     0.281300000000     0.468700000000     0          
C1581    C      0.122500000000     0.307700000000     0.442300000000     0          
C1582    C      0.085200000000     0.362390000000     0.387610000000     0          
C1583    C      0.630700000000     0.044500000000     0.205500000000     0          
C1584    C      0.630500000000     0.017800000000     0.232200000000     0          
C1585    C      0.630500000000     0.968700000000     0.281300000000     0          
C1586    C      0.622500000000     0.942300000000     0.307700000000     0          
C1587    C      0.585200000000     0.887610000000     0.362390000000     0          
C1588    C      0.630700000000     0.544500000000     0.705500000000     0          
C1589    C      0.630500000000     0.517800000000     0.732200000000     0          
C1590    C      0.630500000000     0.468700000000     0.781300000000     0          
C1591    C      0.622500000000     0.442300000000     0.807700000000     0          
C1592    C      0.585200000000     0.387610000000     0.862390000000     0          
C1593    C      0.130700000000     0.544500000000     0.205500000000     0          
C1594    C      0.130500000000     0.517800000000     0.232200000000     0          
C1595    C      0.130500000000     0.468700000000     0.281300000000     0          
C1596    C      0.122500000000     0.442300000000     0.307700000000     0          
C1597    C      0.085200000000     0.387610000000     0.362390000000     0          
C1598    C      0.119300000000     0.205500000000     0.705500000000     0          
C1599    C      0.119500000000     0.232200000000     0.732200000000     0          
C1600    C      0.119500000000     0.281300000000     0.781300000000     0          
C1601    C      0.127500000000     0.307700000000     0.807700000000     0          
C1602    C      0.164800000000     0.362390000000     0.862390000000     0          
C1603    C      0.619300000000     0.205500000000     0.205500000000     0          
C1604    C      0.619500000000     0.232200000000     0.232200000000     0          
C1605    C      0.619500000000     0.281300000000     0.281300000000     0          
C1606    C      0.627500000000     0.307700000000     0.307700000000     0          
C1607    C      0.664800000000     0.362390000000     0.362390000000     0          
C1608    C      0.544500000000     0.619300000000     0.544500000000     0          
C1609    C      0.517800000000     0.619500000000     0.517800000000     0          
C1610    C      0.468700000000     0.619500000000     0.468700000000     0          
C1611    C      0.442300000000     0.627500000000     0.442300000000     0          
C1612    C      0.387610000000     0.664800000000     0.387610000000     0          
C1613    C      0.544500000000     0.119300000000     0.044500000000     0          
C1614    C      0.517800000000     0.119500000000     0.017800000000     0          
C1615    C      0.468700000000     0.119500000000     0.968700000000     0          
C1616    C      0.442300000000     0.127500000000     0.942300000000     0          
C1617    C      0.387610000000     0.164800000000     0.887610000000     0          
C1618    C      0.044500000000     0.619300000000     0.044500000000     0          
C1619    C      0.017800000000     0.619500000000     0.017800000000     0          
C1620    C      0.968700000000     0.619500000000     0.968700000000     0          
C1621    C      0.942300000000     0.627500000000     0.942300000000     0          
C1622    C      0.887610000000     0.664800000000     0.887610000000     0          
C1623    C      0.044500000000     0.119300000000     0.544500000000     0          
C1624    C      0.017800000000     0.119500000000     0.517800000000     0          
C1625    C      0.968700000000     0.119500000000     0.468700000000     0          
C1626    C      0.942300000000     0.127500000000     0.442300000000     0          
C1627    C      0.887610000000     0.164800000000     0.387610000000     0          
C1628    C      0.044500000000     0.130700000000     0.705500000000     0          
C1629    C      0.017800000000     0.130500000000     0.732200000000     0          
C1630    C      0.968700000000     0.130500000000     0.781300000000     0          
C1631    C      0.942300000000     0.122500000000     0.807700000000     0          
C1632    C      0.887610000000     0.085200000000     0.862390000000     0          
C1633    C      0.544500000000     0.130700000000     0.205500000000     0          
C1634    C      0.517800000000     0.130500000000     0.232200000000     0          
C1635    C      0.468700000000     0.130500000000     0.281300000000     0          
C1636    C      0.442300000000     0.122500000000     0.307700000000     0          
C1637    C      0.387610000000     0.085200000000     0.362390000000     0          
C1638    C      0.205500000000     0.630700000000     0.044500000000     0          
C1639    C      0.232200000000     0.630500000000     0.017800000000     0          
C1640    C      0.281300000000     0.630500000000     0.968700000000     0          
C1641    C      0.307700000000     0.622500000000     0.942300000000     0          
C1642    C      0.362390000000     0.585200000000     0.887610000000     0          
C1643    C      0.205500000000     0.130700000000     0.544500000000     0          
C1644    C      0.232200000000     0.130500000000     0.517800000000     0          
C1645    C      0.281300000000     0.130500000000     0.468700000000     0          
C1646    C      0.307700000000     0.122500000000     0.442300000000     0          
C1647    C      0.362390000000     0.085200000000     0.387610000000     0          
C1648    C      0.705500000000     0.119300000000     0.205500000000     0          
C1649    C      0.732200000000     0.119500000000     0.232200000000     0          
C1650    C      0.781300000000     0.119500000000     0.281300000000     0          
C1651    C      0.807700000000     0.127500000000     0.307700000000     0          
C1652    C      0.862390000000     0.164800000000     0.362390000000     0          
C1653    C      0.705500000000     0.619300000000     0.705500000000     0          
C1654    C      0.732200000000     0.619500000000     0.732200000000     0          
C1655    C      0.781300000000     0.619500000000     0.781300000000     0          
C1656    C      0.807700000000     0.627500000000     0.807700000000     0          
C1657    C      0.862390000000     0.664800000000     0.862390000000     0          
C1658    C      0.205500000000     0.619300000000     0.205500000000     0          
C1659    C      0.232200000000     0.619500000000     0.232200000000     0          
C1660    C      0.281300000000     0.619500000000     0.281300000000     0          
C1661    C      0.307700000000     0.627500000000     0.307700000000     0          
C1662    C      0.362390000000     0.664800000000     0.362390000000     0          
C1663    C      0.544500000000     0.544500000000     0.619300000000     0          
C1664    C      0.517800000000     0.517800000000     0.619500000000     0          
C1665    C      0.468700000000     0.468700000000     0.619500000000     0          
C1666    C      0.442300000000     0.442300000000     0.627500000000     0          
C1667    C      0.387610000000     0.387610000000     0.664800000000     0          
C1668    C      0.544500000000     0.044500000000     0.119300000000     0          
C1669    C      0.517800000000     0.017800000000     0.119500000000     0          
C1670    C      0.468700000000     0.968700000000     0.119500000000     0          
C1671    C      0.442300000000     0.942300000000     0.127500000000     0          
C1672    C      0.387610000000     0.887610000000     0.164800000000     0          
C1673    C      0.044500000000     0.544500000000     0.119300000000     0          
C1674    C      0.017800000000     0.517800000000     0.119500000000     0          
C1675    C      0.968700000000     0.468700000000     0.119500000000     0          
C1676    C      0.942300000000     0.442300000000     0.127500000000     0          
C1677    C      0.887610000000     0.387610000000     0.164800000000     0          
C1678    C      0.044500000000     0.044500000000     0.619300000000     0          
C1679    C      0.017800000000     0.017800000000     0.619500000000     0          
C1680    C      0.968700000000     0.968700000000     0.619500000000     0          
C1681    C      0.942300000000     0.942300000000     0.627500000000     0          
C1682    C      0.887610000000     0.887610000000     0.664800000000     0          
C1683    C      0.705500000000     0.044500000000     0.130700000000     0          
C1684    C      0.732200000000     0.017800000000     0.130500000000     0          
C1685    C      0.781300000000     0.968700000000     0.130500000000     0          
C1686    C      0.807700000000     0.942300000000     0.122500000000     0          
C1687    C      0.862390000000     0.887610000000     0.085200000000     0          
C1688    C      0.705500000000     0.544500000000     0.630700000000     0          
C1689    C      0.732200000000     0.517800000000     0.630500000000     0          
C1690    C      0.781300000000     0.468700000000     0.630500000000     0          
C1691    C      0.807700000000     0.442300000000     0.622500000000     0          
C1692    C      0.862390000000     0.387610000000     0.585200000000     0          
C1693    C      0.205500000000     0.544500000000     0.130700000000     0          
C1694    C      0.232200000000     0.517800000000     0.130500000000     0          
C1695    C      0.281300000000     0.468700000000     0.130500000000     0          
C1696    C      0.307700000000     0.442300000000     0.122500000000     0          
C1697    C      0.362390000000     0.387610000000     0.085200000000     0          
C1698    C      0.044500000000     0.205500000000     0.630700000000     0          
C1699    C      0.017800000000     0.232200000000     0.630500000000     0          
C1700    C      0.968700000000     0.281300000000     0.630500000000     0          
C1701    C      0.942300000000     0.307700000000     0.622500000000     0          
C1702    C      0.887610000000     0.362390000000     0.585200000000     0          
C1703    C      0.544500000000     0.205500000000     0.130700000000     0          
C1704    C      0.517800000000     0.232200000000     0.130500000000     0          
C1705    C      0.468700000000     0.281300000000     0.130500000000     0          
C1706    C      0.442300000000     0.307700000000     0.122500000000     0          
C1707    C      0.387610000000     0.362390000000     0.085200000000     0          
C1708    C      0.205500000000     0.705500000000     0.119300000000     0          
C1709    C      0.232200000000     0.732200000000     0.119500000000     0          
C1710    C      0.281300000000     0.781300000000     0.119500000000     0          
C1711    C      0.307700000000     0.807700000000     0.127500000000     0          
C1712    C      0.362390000000     0.862390000000     0.164800000000     0          
C1713    C      0.205500000000     0.205500000000     0.619300000000     0          
C1714    C      0.232200000000     0.232200000000     0.619500000000     0          
C1715    C      0.281300000000     0.281300000000     0.619500000000     0          
C1716    C      0.307700000000     0.307700000000     0.627500000000     0          
C1717    C      0.362390000000     0.362390000000     0.664800000000     0          
C1718    C      0.294500000000     0.869300000000     0.955500000000     0          
C1719    C      0.267800000000     0.869500000000     0.982200000000     0          
C1720    C      0.218700000000     0.869500000000     0.031300000000     0          
C1721    C      0.192300000000     0.877500000000     0.057700000000     0          
C1722    C      0.137610000000     0.914800000000     0.112390000000     0          
C1723    C      0.294500000000     0.369300000000     0.455500000000     0          
C1724    C      0.267800000000     0.369500000000     0.482200000000     0          
C1725    C      0.218700000000     0.369500000000     0.531300000000     0          
C1726    C      0.192300000000     0.377500000000     0.557700000000     0          
C1727    C      0.137610000000     0.414800000000     0.612390000000     0          
C1728    C      0.455500000000     0.380700000000     0.455500000000     0          
C1729    C      0.482200000000     0.380500000000     0.482200000000     0          
C1730    C      0.531300000000     0.380500000000     0.531300000000     0          
C1731    C      0.557700000000     0.372500000000     0.557700000000     0          
C1732    C      0.612390000000     0.335200000000     0.612390000000     0          
C1733    C      0.455500000000     0.880700000000     0.955500000000     0          
C1734    C      0.482200000000     0.880500000000     0.982200000000     0          
C1735    C      0.531300000000     0.880500000000     0.031300000000     0          
C1736    C      0.557700000000     0.872500000000     0.057700000000     0          
C1737    C      0.612390000000     0.835200000000     0.112390000000     0          
C1738    C      0.955500000000     0.380700000000     0.955500000000     0          
C1739    C      0.982200000000     0.380500000000     0.982200000000     0          
C1740    C      0.031300000000     0.380500000000     0.031300000000     0          
C1741    C      0.057700000000     0.372500000000     0.057700000000     0          
C1742    C      0.112390000000     0.335200000000     0.112390000000     0          
C1743    C      0.955500000000     0.880700000000     0.455500000000     0          
C1744    C      0.982200000000     0.880500000000     0.482200000000     0          
C1745    C      0.031300000000     0.880500000000     0.531300000000     0          
C1746    C      0.057700000000     0.872500000000     0.557700000000     0          
C1747    C      0.112390000000     0.835200000000     0.612390000000     0          
C1748    C      0.794500000000     0.880700000000     0.294500000000     0          
C1749    C      0.767800000000     0.880500000000     0.267800000000     0          
C1750    C      0.718700000000     0.880500000000     0.218700000000     0          
C1751    C      0.692300000000     0.872500000000     0.192300000000     0          
C1752    C      0.637610000000     0.835200000000     0.137610000000     0          
C1753    C      0.794500000000     0.380700000000     0.794500000000     0          
C1754    C      0.767800000000     0.380500000000     0.767800000000     0          
C1755    C      0.718700000000     0.380500000000     0.718700000000     0          
C1756    C      0.692300000000     0.372500000000     0.692300000000     0          
C1757    C      0.637610000000     0.335200000000     0.637610000000     0          
C1758    C      0.294500000000     0.380700000000     0.294500000000     0          
C1759    C      0.267800000000     0.380500000000     0.267800000000     0          
C1760    C      0.218700000000     0.380500000000     0.218700000000     0          
C1761    C      0.192300000000     0.372500000000     0.192300000000     0          
C1762    C      0.137610000000     0.335200000000     0.137610000000     0          
C1763    C      0.955500000000     0.369300000000     0.794500000000     0          
C1764    C      0.982200000000     0.369500000000     0.767800000000     0          
C1765    C      0.031300000000     0.369500000000     0.718700000000     0          
C1766    C      0.057700000000     0.377500000000     0.692300000000     0          
C1767    C      0.112390000000     0.414800000000     0.637610000000     0          
C1768    C      0.455500000000     0.369300000000     0.294500000000     0          
C1769    C      0.482200000000     0.369500000000     0.267800000000     0          
C1770    C      0.531300000000     0.369500000000     0.218700000000     0          
C1771    C      0.557700000000     0.377500000000     0.192300000000     0          
C1772    C      0.612390000000     0.414800000000     0.137610000000     0          
C1773    C      0.369300000000     0.794500000000     0.955500000000     0          
C1774    C      0.369500000000     0.767800000000     0.982200000000     0          
C1775    C      0.369500000000     0.718700000000     0.031300000000     0          
C1776    C      0.377500000000     0.692300000000     0.057700000000     0          
C1777    C      0.414800000000     0.637610000000     0.112390000000     0          
C1778    C      0.369300000000     0.294500000000     0.455500000000     0          
C1779    C      0.369500000000     0.267800000000     0.482200000000     0          
C1780    C      0.369500000000     0.218700000000     0.531300000000     0          
C1781    C      0.377500000000     0.192300000000     0.557700000000     0          
C1782    C      0.414800000000     0.137610000000     0.612390000000     0          
C1783    C      0.880700000000     0.294500000000     0.794500000000     0          
C1784    C      0.880500000000     0.267800000000     0.767800000000     0          
C1785    C      0.880500000000     0.218700000000     0.718700000000     0          
C1786    C      0.872500000000     0.192300000000     0.692300000000     0          
C1787    C      0.835200000000     0.137610000000     0.637610000000     0          
C1788    C      0.380700000000     0.294500000000     0.294500000000     0          
C1789    C      0.380500000000     0.267800000000     0.267800000000     0          
C1790    C      0.380500000000     0.218700000000     0.218700000000     0          
C1791    C      0.372500000000     0.192300000000     0.192300000000     0          
C1792    C      0.335200000000     0.137610000000     0.137610000000     0          
C1793    C      0.380700000000     0.455500000000     0.455500000000     0          
C1794    C      0.380500000000     0.482200000000     0.482200000000     0          
C1795    C      0.380500000000     0.531300000000     0.531300000000     0          
C1796    C      0.372500000000     0.557700000000     0.557700000000     0          
C1797    C      0.335200000000     0.612390000000     0.612390000000     0          
C1798    C      0.380700000000     0.955500000000     0.955500000000     0          
C1799    C      0.380500000000     0.982200000000     0.982200000000     0          
C1800    C      0.380500000000     0.031300000000     0.031300000000     0          
C1801    C      0.372500000000     0.057700000000     0.057700000000     0          
C1802    C      0.335200000000     0.112390000000     0.112390000000     0          
C1803    C      0.880700000000     0.455500000000     0.955500000000     0          
C1804    C      0.880500000000     0.482200000000     0.982200000000     0          
C1805    C      0.880500000000     0.531300000000     0.031300000000     0          
C1806    C      0.872500000000     0.557700000000     0.057700000000     0          
C1807    C      0.835200000000     0.612390000000     0.112390000000     0          
C1808    C      0.880700000000     0.955500000000     0.455500000000     0          
C1809    C      0.880500000000     0.982200000000     0.482200000000     0          
C1810    C      0.880500000000     0.031300000000     0.531300000000     0          
C1811    C      0.872500000000     0.057700000000     0.557700000000     0          
C1812    C      0.835200000000     0.112390000000     0.612390000000     0          
C1813    C      0.869300000000     0.955500000000     0.294500000000     0          
C1814    C      0.869500000000     0.982200000000     0.267800000000     0          
C1815    C      0.869500000000     0.031300000000     0.218700000000     0          
C1816    C      0.877500000000     0.057700000000     0.192300000000     0          
C1817    C      0.914800000000     0.112390000000     0.137610000000     0          
C1818    C      0.869300000000     0.455500000000     0.794500000000     0          
C1819    C      0.869500000000     0.482200000000     0.767800000000     0          
C1820    C      0.869500000000     0.531300000000     0.718700000000     0          
C1821    C      0.877500000000     0.557700000000     0.692300000000     0          
C1822    C      0.914800000000     0.612390000000     0.637610000000     0          
C1823    C      0.369300000000     0.455500000000     0.294500000000     0          
C1824    C      0.369500000000     0.482200000000     0.267800000000     0          
C1825    C      0.369500000000     0.531300000000     0.218700000000     0          
C1826    C      0.377500000000     0.557700000000     0.192300000000     0          
C1827    C      0.414800000000     0.612390000000     0.137610000000     0          
C1828    C      0.294500000000     0.794500000000     0.880700000000     0          
C1829    C      0.267800000000     0.767800000000     0.880500000000     0          
C1830    C      0.218700000000     0.718700000000     0.880500000000     0          
C1831    C      0.192300000000     0.692300000000     0.872500000000     0          
C1832    C      0.137610000000     0.637610000000     0.835200000000     0          
C1833    C      0.294500000000     0.294500000000     0.380700000000     0          
C1834    C      0.267800000000     0.267800000000     0.380500000000     0          
C1835    C      0.218700000000     0.218700000000     0.380500000000     0          
C1836    C      0.192300000000     0.192300000000     0.372500000000     0          
C1837    C      0.137610000000     0.137610000000     0.335200000000     0          
C1838    C      0.794500000000     0.955500000000     0.369300000000     0          
C1839    C      0.767800000000     0.982200000000     0.369500000000     0          
C1840    C      0.718700000000     0.031300000000     0.369500000000     0          
C1841    C      0.692300000000     0.057700000000     0.377500000000     0          
C1842    C      0.637610000000     0.112390000000     0.414800000000     0          
C1843    C      0.794500000000     0.455500000000     0.869300000000     0          
C1844    C      0.767800000000     0.482200000000     0.869500000000     0          
C1845    C      0.718700000000     0.531300000000     0.869500000000     0          
C1846    C      0.692300000000     0.557700000000     0.877500000000     0          
C1847    C      0.637610000000     0.612390000000     0.914800000000     0          
C1848    C      0.294500000000     0.455500000000     0.369300000000     0          
C1849    C      0.267800000000     0.482200000000     0.369500000000     0          
C1850    C      0.218700000000     0.531300000000     0.369500000000     0          
C1851    C      0.192300000000     0.557700000000     0.377500000000     0          
C1852    C      0.137610000000     0.612390000000     0.414800000000     0          
C1853    C      0.955500000000     0.294500000000     0.869300000000     0          
C1854    C      0.982200000000     0.267800000000     0.869500000000     0          
C1855    C      0.031300000000     0.218700000000     0.869500000000     0          
C1856    C      0.057700000000     0.192300000000     0.877500000000     0          
C1857    C      0.112390000000     0.137610000000     0.914800000000     0          
C1858    C      0.455500000000     0.294500000000     0.369300000000     0          
C1859    C      0.482200000000     0.267800000000     0.369500000000     0          
C1860    C      0.531300000000     0.218700000000     0.369500000000     0          
C1861    C      0.557700000000     0.192300000000     0.377500000000     0          
C1862    C      0.612390000000     0.137610000000     0.414800000000     0          
C1863    C      0.455500000000     0.455500000000     0.380700000000     0          
C1864    C      0.482200000000     0.482200000000     0.380500000000     0          
C1865    C      0.531300000000     0.531300000000     0.380500000000     0          
C1866    C      0.557700000000     0.557700000000     0.372500000000     0          
C1867    C      0.612390000000     0.612390000000     0.335200000000     0          
C1868    C      0.455500000000     0.955500000000     0.880700000000     0          
C1869    C      0.482200000000     0.982200000000     0.880500000000     0          
C1870    C      0.531300000000     0.031300000000     0.880500000000     0          
C1871    C      0.557700000000     0.057700000000     0.872500000000     0          
C1872    C      0.612390000000     0.112390000000     0.835200000000     0          
C1873    C      0.955500000000     0.455500000000     0.880700000000     0          
C1874    C      0.982200000000     0.482200000000     0.880500000000     0          
C1875    C      0.031300000000     0.531300000000     0.880500000000     0          
C1876    C      0.057700000000     0.557700000000     0.872500000000     0          
C1877    C      0.112390000000     0.612390000000     0.835200000000     0          
C1878    C      0.955500000000     0.955500000000     0.380700000000     0          
C1879    C      0.982200000000     0.982200000000     0.380500000000     0          
C1880    C      0.031300000000     0.031300000000     0.380500000000     0          
C1881    C      0.057700000000     0.057700000000     0.372500000000     0          
C1882    C      0.112390000000     0.112390000000     0.335200000000     0          
C1883    C      0.869300000000     0.294500000000     0.955500000000     0          
C1884    C      0.869500000000     0.267800000000     0.982200000000     0          
C1885    C      0.869500000000     0.218700000000     0.031300000000     0          
C1886    C      0.877500000000     0.192300000000     0.057700000000     0          
C1887    C      0.914800000000     0.137610000000     0.112390000000     0          
C1888    C      0.869300000000     0.794500000000     0.455500000000     0          
C1889    C      0.869500000000     0.767800000000     0.482200000000     0          
C1890    C      0.869500000000     0.718700000000     0.531300000000     0          
C1891    C      0.877500000000     0.692300000000     0.557700000000     0          
C1892    C      0.914800000000     0.637610000000     0.612390000000     0          
C1893    C      0.369300000000     0.955500000000     0.794500000000     0          
C1894    C      0.369500000000     0.982200000000     0.767800000000     0          
C1895    C      0.369500000000     0.031300000000     0.718700000000     0          
C1896    C      0.377500000000     0.057700000000     0.692300000000     0          
C1897    C      0.414800000000     0.112390000000     0.637610000000     0          
C1898    C      0.880700000000     0.794500000000     0.294500000000     0          
C1899    C      0.880500000000     0.767800000000     0.267800000000     0          
C1900    C      0.880500000000     0.718700000000     0.218700000000     0          
C1901    C      0.872500000000     0.692300000000     0.192300000000     0          
C1902    C      0.835200000000     0.637610000000     0.137610000000     0          
C1903    C      0.380700000000     0.794500000000     0.794500000000     0          
C1904    C      0.380500000000     0.767800000000     0.767800000000     0          
C1905    C      0.380500000000     0.718700000000     0.718700000000     0          
C1906    C      0.372500000000     0.692300000000     0.692300000000     0          
C1907    C      0.335200000000     0.637610000000     0.637610000000     0          
C1908    C      0.955500000000     0.869300000000     0.294500000000     0          
C1909    C      0.982200000000     0.869500000000     0.267800000000     0          
C1910    C      0.031300000000     0.869500000000     0.218700000000     0          
C1911    C      0.057700000000     0.877500000000     0.192300000000     0          
C1912    C      0.112390000000     0.914800000000     0.137610000000     0          
C1913    C      0.455500000000     0.869300000000     0.794500000000     0          
C1914    C      0.482200000000     0.869500000000     0.767800000000     0          
C1915    C      0.531300000000     0.869500000000     0.718700000000     0          
C1916    C      0.557700000000     0.877500000000     0.692300000000     0          
C1917    C      0.612390000000     0.914800000000     0.637610000000     0          
C1918    C      0.794500000000     0.369300000000     0.955500000000     0          
C1919    C      0.767800000000     0.369500000000     0.982200000000     0          
C1920    C      0.718700000000     0.369500000000     0.031300000000     0          
C1921    C      0.692300000000     0.377500000000     0.057700000000     0          
C1922    C      0.637610000000     0.414800000000     0.112390000000     0          
C1923    C      0.794500000000     0.869300000000     0.455500000000     0          
C1924    C      0.767800000000     0.869500000000     0.482200000000     0          
C1925    C      0.718700000000     0.869500000000     0.531300000000     0          
C1926    C      0.692300000000     0.877500000000     0.557700000000     0          
C1927    C      0.637610000000     0.914800000000     0.612390000000     0          
C1928    C      0.294500000000     0.880700000000     0.794500000000     0          
C1929    C      0.267800000000     0.880500000000     0.767800000000     0          
C1930    C      0.218700000000     0.880500000000     0.718700000000     0          
C1931    C      0.192300000000     0.872500000000     0.692300000000     0          
C1932    C      0.137610000000     0.835200000000     0.637610000000     0          
C1933    C      0.294500000000     0.955500000000     0.869300000000     0          
C1934    C      0.267800000000     0.982200000000     0.869500000000     0          
C1935    C      0.218700000000     0.031300000000     0.869500000000     0          
C1936    C      0.192300000000     0.057700000000     0.877500000000     0          
C1937    C      0.137610000000     0.112390000000     0.914800000000     0          
C1938    C      0.955500000000     0.794500000000     0.369300000000     0          
C1939    C      0.982200000000     0.767800000000     0.369500000000     0          
C1940    C      0.031300000000     0.718700000000     0.369500000000     0          
C1941    C      0.057700000000     0.692300000000     0.377500000000     0          
C1942    C      0.112390000000     0.637610000000     0.414800000000     0          
C1943    C      0.455500000000     0.794500000000     0.869300000000     0          
C1944    C      0.482200000000     0.767800000000     0.869500000000     0          
C1945    C      0.531300000000     0.718700000000     0.869500000000     0          
C1946    C      0.557700000000     0.692300000000     0.877500000000     0          
C1947    C      0.612390000000     0.637610000000     0.914800000000     0          
C1948    C      0.794500000000     0.294500000000     0.880700000000     0          
C1949    C      0.767800000000     0.267800000000     0.880500000000     0          
C1950    C      0.718700000000     0.218700000000     0.880500000000     0          
C1951    C      0.692300000000     0.192300000000     0.872500000000     0          
C1952    C      0.637610000000     0.137610000000     0.835200000000     0          
C1953    C      0.794500000000     0.794500000000     0.380700000000     0          
C1954    C      0.767800000000     0.767800000000     0.380500000000     0          
C1955    C      0.718700000000     0.718700000000     0.380500000000     0          
C1956    C      0.692300000000     0.692300000000     0.372500000000     0          
C1957    C      0.637610000000     0.637610000000     0.335200000000     0          
C1958    C      0.705500000000     0.130700000000     0.044500000000     0          
C1959    C      0.732200000000     0.130500000000     0.017800000000     0          
C1960    C      0.781300000000     0.130500000000     0.968700000000     0          
C1961    C      0.807700000000     0.122500000000     0.942300000000     0          
C1962    C      0.862390000000     0.085200000000     0.887610000000     0          
C1963    C      0.705500000000     0.630700000000     0.544500000000     0          
C1964    C      0.732200000000     0.630500000000     0.517800000000     0          
C1965    C      0.781300000000     0.630500000000     0.468700000000     0          
C1966    C      0.807700000000     0.622500000000     0.442300000000     0          
C1967    C      0.862390000000     0.585200000000     0.387610000000     0          
C1968    C      0.205500000000     0.119300000000     0.705500000000     0          
C1969    C      0.232200000000     0.119500000000     0.732200000000     0          
C1970    C      0.281300000000     0.119500000000     0.781300000000     0          
C1971    C      0.307700000000     0.127500000000     0.807700000000     0          
C1972    C      0.362390000000     0.164800000000     0.862390000000     0          
C1973    C      0.044500000000     0.630700000000     0.205500000000     0          
C1974    C      0.017800000000     0.630500000000     0.232200000000     0          
C1975    C      0.968700000000     0.630500000000     0.281300000000     0          
C1976    C      0.942300000000     0.622500000000     0.307700000000     0          
C1977    C      0.887610000000     0.585200000000     0.362390000000     0          
C1978    C      0.544500000000     0.630700000000     0.705500000000     0          
C1979    C      0.517800000000     0.630500000000     0.732200000000     0          
C1980    C      0.468700000000     0.630500000000     0.781300000000     0          
C1981    C      0.442300000000     0.622500000000     0.807700000000     0          
C1982    C      0.387610000000     0.585200000000     0.862390000000     0          
C1983    C      0.630700000000     0.205500000000     0.044500000000     0          
C1984    C      0.630500000000     0.232200000000     0.017800000000     0          
C1985    C      0.630500000000     0.281300000000     0.968700000000     0          
C1986    C      0.622500000000     0.307700000000     0.942300000000     0          
C1987    C      0.585200000000     0.362390000000     0.887610000000     0          
C1988    C      0.630700000000     0.705500000000     0.544500000000     0          
C1989    C      0.630500000000     0.732200000000     0.517800000000     0          
C1990    C      0.630500000000     0.781300000000     0.468700000000     0          
C1991    C      0.622500000000     0.807700000000     0.442300000000     0          
C1992    C      0.585200000000     0.862390000000     0.387610000000     0          
C1993    C      0.119300000000     0.705500000000     0.205500000000     0          
C1994    C      0.119500000000     0.732200000000     0.232200000000     0          
C1995    C      0.119500000000     0.781300000000     0.281300000000     0          
C1996    C      0.127500000000     0.807700000000     0.307700000000     0          
C1997    C      0.164800000000     0.862390000000     0.362390000000     0          
C1998    C      0.619300000000     0.705500000000     0.705500000000     0          
C1999    C      0.619500000000     0.732200000000     0.732200000000     0          
C2000    C      0.619500000000     0.781300000000     0.781300000000     0          
C2001    C      0.627500000000     0.807700000000     0.807700000000     0          
C2002    C      0.664800000000     0.862390000000     0.862390000000     0          
C2003    C      0.130700000000     0.044500000000     0.705500000000     0          
C2004    C      0.130500000000     0.017800000000     0.732200000000     0          
C2005    C      0.130500000000     0.968700000000     0.781300000000     0          
C2006    C      0.122500000000     0.942300000000     0.807700000000     0          
C2007    C      0.085200000000     0.887610000000     0.862390000000     0          
C2008    C      0.705500000000     0.205500000000     0.119300000000     0          
C2009    C      0.732200000000     0.232200000000     0.119500000000     0          
C2010    C      0.781300000000     0.281300000000     0.119500000000     0          
C2011    C      0.807700000000     0.307700000000     0.127500000000     0          
C2012    C      0.862390000000     0.362390000000     0.164800000000     0          
C2013    C      0.705500000000     0.705500000000     0.619300000000     0          
C2014    C      0.732200000000     0.732200000000     0.619500000000     0          
C2015    C      0.781300000000     0.781300000000     0.619500000000     0          
C2016    C      0.807700000000     0.807700000000     0.627500000000     0          
C2017    C      0.862390000000     0.862390000000     0.664800000000     0          
C2018    C      0.205500000000     0.044500000000     0.630700000000     0          
C2019    C      0.232200000000     0.017800000000     0.630500000000     0          
C2020    C      0.281300000000     0.968700000000     0.630500000000     0          
C2021    C      0.307700000000     0.942300000000     0.622500000000     0          
C2022    C      0.362390000000     0.887610000000     0.585200000000     0          
C2023    C      0.044500000000     0.705500000000     0.130700000000     0          
C2024    C      0.017800000000     0.732200000000     0.130500000000     0          
C2025    C      0.968700000000     0.781300000000     0.130500000000     0          
C2026    C      0.942300000000     0.807700000000     0.122500000000     0          
C2027    C      0.887610000000     0.862390000000     0.085200000000     0          
C2028    C      0.544500000000     0.705500000000     0.630700000000     0          
C2029    C      0.517800000000     0.732200000000     0.630500000000     0          
C2030    C      0.468700000000     0.781300000000     0.630500000000     0          
C2031    C      0.442300000000     0.807700000000     0.622500000000     0          
C2032    C      0.387610000000     0.862390000000     0.585200000000     0          
H2033    H      0.341680000000     0.685320000000     0.361150000000     0          
H2034    H      0.388850000000     0.685320000000     0.408320000000     0          
H2035    H      0.432460000000     0.593630000000     0.364760000000     0          
H2036    H      0.385240000000     0.593630000000     0.317540000000     0          
H2037    H      0.841680000000     0.685320000000     0.861150000000     0          
H2038    H      0.888850000000     0.685320000000     0.908320000000     0          
H2039    H      0.932460000000     0.593630000000     0.864760000000     0          
H2040    H      0.885240000000     0.593630000000     0.817540000000     0          
H2041    H      0.182460000000     0.406370000000     0.114760000000     0          
H2042    H      0.135240000000     0.406370000000     0.067540000000     0          
H2043    H      0.091680000000     0.314680000000     0.111150000000     0          
H2044    H      0.138850000000     0.314680000000     0.158320000000     0          
H2045    H      0.182460000000     0.906370000000     0.614760000000     0          
H2046    H      0.135240000000     0.906370000000     0.567540000000     0          
H2047    H      0.091680000000     0.814680000000     0.611150000000     0          
H2048    H      0.138850000000     0.814680000000     0.658320000000     0          
H2049    H      0.635240000000     0.406370000000     0.567540000000     0          
H2050    H      0.682460000000     0.406370000000     0.614760000000     0          
H2051    H      0.591680000000     0.314680000000     0.611150000000     0          
H2052    H      0.638850000000     0.314680000000     0.658320000000     0          
H2053    H      0.567540000000     0.906370000000     0.135240000000     0          
H2054    H      0.614760000000     0.906370000000     0.182460000000     0          
H2055    H      0.611150000000     0.814680000000     0.091680000000     0          
H2056    H      0.658320000000     0.814680000000     0.138850000000     0          
H2057    H      0.385240000000     0.093630000000     0.817540000000     0          
H2058    H      0.432460000000     0.093630000000     0.864760000000     0          
H2059    H      0.388850000000     0.185320000000     0.908320000000     0          
H2060    H      0.341680000000     0.185320000000     0.861150000000     0          
H2061    H      0.885240000000     0.093630000000     0.317540000000     0          
H2062    H      0.932460000000     0.093630000000     0.364760000000     0          
H2063    H      0.888850000000     0.185320000000     0.408320000000     0          
H2064    H      0.841680000000     0.185320000000     0.361150000000     0          
H2065    H      0.385240000000     0.156370000000     0.432460000000     0          
H2066    H      0.341680000000     0.064680000000     0.388850000000     0          
H2067    H      0.432460000000     0.156370000000     0.385240000000     0          
H2068    H      0.388850000000     0.064680000000     0.341680000000     0          
H2069    H      0.182460000000     0.343630000000     0.635240000000     0          
H2070    H      0.135240000000     0.343630000000     0.682460000000     0          
H2071    H      0.138850000000     0.435320000000     0.591680000000     0          
H2072    H      0.091680000000     0.435320000000     0.638850000000     0          
H2073    H      0.385240000000     0.656370000000     0.932460000000     0          
H2074    H      0.432460000000     0.656370000000     0.885240000000     0          
H2075    H      0.341680000000     0.564680000000     0.888850000000     0          
H2076    H      0.388850000000     0.564680000000     0.841680000000     0          
H2077    H      0.885240000000     0.656370000000     0.432460000000     0          
H2078    H      0.932460000000     0.656370000000     0.385240000000     0          
H2079    H      0.841680000000     0.564680000000     0.388850000000     0          
H2080    H      0.888850000000     0.564680000000     0.341680000000     0          
H2081    H      0.135240000000     0.682460000000     0.343630000000     0          
H2082    H      0.182460000000     0.635240000000     0.343630000000     0          
H2083    H      0.138850000000     0.591680000000     0.435320000000     0          
H2084    H      0.091680000000     0.638850000000     0.435320000000     0          
H2085    H      0.432460000000     0.885240000000     0.656370000000     0          
H2086    H      0.385240000000     0.932460000000     0.656370000000     0          
H2087    H      0.341680000000     0.888850000000     0.564680000000     0          
H2088    H      0.388850000000     0.841680000000     0.564680000000     0          
H2089    H      0.182460000000     0.843630000000     0.135240000000     0          
H2090    H      0.135240000000     0.843630000000     0.182460000000     0          
H2091    H      0.138850000000     0.935320000000     0.091680000000     0          
H2092    H      0.091680000000     0.935320000000     0.138850000000     0          
H2093    H      0.682460000000     0.843630000000     0.635240000000     0          
H2094    H      0.635240000000     0.843630000000     0.682460000000     0          
H2095    H      0.591680000000     0.935320000000     0.638850000000     0          
H2096    H      0.638850000000     0.935320000000     0.591680000000     0          
H2097    H      0.614760000000     0.567540000000     0.843630000000     0          
H2098    H      0.567540000000     0.614760000000     0.843630000000     0          
H2099    H      0.658320000000     0.611150000000     0.935320000000     0          
H2100    H      0.611150000000     0.658320000000     0.935320000000     0          
H2101    H      0.406370000000     0.135240000000     0.067540000000     0          
H2102    H      0.406370000000     0.182460000000     0.114760000000     0          
H2103    H      0.314680000000     0.138850000000     0.158320000000     0          
H2104    H      0.314680000000     0.091680000000     0.111150000000     0          
H2105    H      0.135240000000     0.182460000000     0.843630000000     0          
H2106    H      0.182460000000     0.135240000000     0.843630000000     0          
H2107    H      0.091680000000     0.138850000000     0.935320000000     0          
H2108    H      0.138850000000     0.091680000000     0.935320000000     0          
H2109    H      0.593630000000     0.932460000000     0.864760000000     0          
H2110    H      0.593630000000     0.885240000000     0.817540000000     0          
H2111    H      0.685320000000     0.888850000000     0.908320000000     0          
H2112    H      0.685320000000     0.841680000000     0.861150000000     0          
H2113    H      0.906370000000     0.135240000000     0.567540000000     0          
H2114    H      0.906370000000     0.182460000000     0.614760000000     0          
H2115    H      0.814680000000     0.138850000000     0.658320000000     0          
H2116    H      0.814680000000     0.091680000000     0.611150000000     0          
H2117    H      0.906370000000     0.635240000000     0.067540000000     0          
H2118    H      0.906370000000     0.682460000000     0.114760000000     0          
H2119    H      0.814680000000     0.591680000000     0.111150000000     0          
H2120    H      0.814680000000     0.638850000000     0.158320000000     0          
H2121    H      0.885240000000     0.156370000000     0.932460000000     0          
H2122    H      0.932460000000     0.156370000000     0.885240000000     0          
H2123    H      0.888850000000     0.064680000000     0.841680000000     0          
H2124    H      0.841680000000     0.064680000000     0.888850000000     0          
H2125    H      0.593630000000     0.432460000000     0.364760000000     0          
H2126    H      0.593630000000     0.385240000000     0.317540000000     0          
H2127    H      0.685320000000     0.388850000000     0.408320000000     0          
H2128    H      0.685320000000     0.341680000000     0.361150000000     0          
H2129    H      0.432460000000     0.385240000000     0.156370000000     0          
H2130    H      0.385240000000     0.432460000000     0.156370000000     0          
H2131    H      0.341680000000     0.388850000000     0.064680000000     0          
H2132    H      0.388850000000     0.341680000000     0.064680000000     0          
H2133    H      0.932460000000     0.885240000000     0.156370000000     0          
H2134    H      0.885240000000     0.932460000000     0.156370000000     0          
H2135    H      0.841680000000     0.888850000000     0.064680000000     0          
H2136    H      0.888850000000     0.841680000000     0.064680000000     0          
H2137    H      0.406370000000     0.635240000000     0.567540000000     0          
H2138    H      0.406370000000     0.682460000000     0.614760000000     0          
H2139    H      0.314680000000     0.591680000000     0.611150000000     0          
H2140    H      0.314680000000     0.638850000000     0.658320000000     0          
H2141    H      0.093630000000     0.432460000000     0.864760000000     0          
H2142    H      0.093630000000     0.385240000000     0.817540000000     0          
H2143    H      0.185320000000     0.388850000000     0.908320000000     0          
H2144    H      0.185320000000     0.341680000000     0.861150000000     0          
H2145    H      0.093630000000     0.932460000000     0.364760000000     0          
H2146    H      0.093630000000     0.885240000000     0.317540000000     0          
H2147    H      0.185320000000     0.888850000000     0.408320000000     0          
H2148    H      0.185320000000     0.841680000000     0.361150000000     0          
H2149    H      0.682460000000     0.343630000000     0.135240000000     0          
H2150    H      0.635240000000     0.343630000000     0.182460000000     0          
H2151    H      0.591680000000     0.435320000000     0.138850000000     0          
H2152    H      0.638850000000     0.435320000000     0.091680000000     0          
H2153    H      0.635240000000     0.182460000000     0.343630000000     0          
H2154    H      0.682460000000     0.135240000000     0.343630000000     0          
H2155    H      0.638850000000     0.091680000000     0.435320000000     0          
H2156    H      0.591680000000     0.138850000000     0.435320000000     0          
H2157    H      0.932460000000     0.385240000000     0.656370000000     0          
H2158    H      0.885240000000     0.432460000000     0.656370000000     0          
H2159    H      0.841680000000     0.388850000000     0.564680000000     0          
H2160    H      0.888850000000     0.341680000000     0.564680000000     0          
H2161    H      0.343630000000     0.635240000000     0.182460000000     0          
H2162    H      0.343630000000     0.682460000000     0.135240000000     0          
H2163    H      0.435320000000     0.638850000000     0.091680000000     0          
H2164    H      0.435320000000     0.591680000000     0.138850000000     0          
H2165    H      0.656370000000     0.932460000000     0.385240000000     0          
H2166    H      0.656370000000     0.885240000000     0.432460000000     0          
H2167    H      0.564680000000     0.888850000000     0.341680000000     0          
H2168    H      0.564680000000     0.841680000000     0.388850000000     0          
H2169    H      0.156370000000     0.432460000000     0.385240000000     0          
H2170    H      0.156370000000     0.385240000000     0.432460000000     0          
H2171    H      0.064680000000     0.341680000000     0.388850000000     0          
H2172    H      0.064680000000     0.388850000000     0.341680000000     0          
H2173    H      0.156370000000     0.932460000000     0.885240000000     0          
H2174    H      0.156370000000     0.885240000000     0.932460000000     0          
H2175    H      0.064680000000     0.841680000000     0.888850000000     0          
H2176    H      0.064680000000     0.888850000000     0.841680000000     0          
H2177    H      0.343630000000     0.135240000000     0.682460000000     0          
H2178    H      0.343630000000     0.182460000000     0.635240000000     0          
H2179    H      0.435320000000     0.138850000000     0.591680000000     0          
H2180    H      0.435320000000     0.091680000000     0.638850000000     0          
H2181    H      0.656370000000     0.432460000000     0.885240000000     0          
H2182    H      0.656370000000     0.385240000000     0.932460000000     0          
H2183    H      0.564680000000     0.388850000000     0.841680000000     0          
H2184    H      0.564680000000     0.341680000000     0.888850000000     0          
H2185    H      0.114760000000     0.682460000000     0.906370000000     0          
H2186    H      0.067540000000     0.635240000000     0.906370000000     0          
H2187    H      0.158320000000     0.638850000000     0.814680000000     0          
H2188    H      0.111150000000     0.591680000000     0.814680000000     0          
H2189    H      0.317540000000     0.385240000000     0.593630000000     0          
H2190    H      0.364760000000     0.432460000000     0.593630000000     0          
H2191    H      0.408320000000     0.388850000000     0.685320000000     0          
H2192    H      0.361150000000     0.341680000000     0.685320000000     0          
H2193    H      0.614760000000     0.182460000000     0.906370000000     0          
H2194    H      0.567540000000     0.135240000000     0.906370000000     0          
H2195    H      0.611150000000     0.091680000000     0.814680000000     0          
H2196    H      0.658320000000     0.138850000000     0.814680000000     0          
H2197    H      0.114760000000     0.182460000000     0.406370000000     0          
H2198    H      0.067540000000     0.135240000000     0.406370000000     0          
H2199    H      0.158320000000     0.138850000000     0.314680000000     0          
H2200    H      0.111150000000     0.091680000000     0.314680000000     0          
H2201    H      0.614760000000     0.682460000000     0.406370000000     0          
H2202    H      0.567540000000     0.635240000000     0.406370000000     0          
H2203    H      0.611150000000     0.591680000000     0.314680000000     0          
H2204    H      0.658320000000     0.638850000000     0.314680000000     0          
H2205    H      0.317540000000     0.885240000000     0.093630000000     0          
H2206    H      0.364760000000     0.932460000000     0.093630000000     0          
H2207    H      0.408320000000     0.888850000000     0.185320000000     0          
H2208    H      0.361150000000     0.841680000000     0.185320000000     0          
H2209    H      0.817540000000     0.385240000000     0.093630000000     0          
H2210    H      0.864760000000     0.432460000000     0.093630000000     0          
H2211    H      0.908320000000     0.388850000000     0.185320000000     0          
H2212    H      0.861150000000     0.341680000000     0.185320000000     0          
H2213    H      0.843630000000     0.135240000000     0.182460000000     0          
H2214    H      0.843630000000     0.182460000000     0.135240000000     0          
H2215    H      0.935320000000     0.091680000000     0.138850000000     0          
H2216    H      0.935320000000     0.138850000000     0.091680000000     0          
H2217    H      0.932460000000     0.864760000000     0.593630000000     0          
H2218    H      0.885240000000     0.817540000000     0.593630000000     0          
H2219    H      0.888850000000     0.908320000000     0.685320000000     0          
H2220    H      0.841680000000     0.861150000000     0.685320000000     0          
H2221    H      0.843630000000     0.614760000000     0.567540000000     0          
H2222    H      0.843630000000     0.567540000000     0.614760000000     0          
H2223    H      0.935320000000     0.611150000000     0.658320000000     0          
H2224    H      0.935320000000     0.658320000000     0.611150000000     0          


