data_UKUDEL

_audit_creation_method RASPA-1.0
_audit_creation_date 2020-11-2
_audit_author_name 'Rocio Bueno-Perez'

_cell_length_a    20.8002
_cell_length_b    20.8002
_cell_length_c    20.8002
_cell_angle_alpha 90
_cell_angle_beta  90
_cell_angle_gamma 90
_cell_volume      8999.17

_symmetry_cell_setting          triclinic
_symmetry_space_group_name_Hall 'P 1'
_symmetry_space_group_name_H-M  'P 1'
_symmetry_Int_Tables_number     1

_symmetry_equiv_pos_as_xyz 'x,y,z'

loop_
_atom_site_label
_atom_site_type_symbol
_atom_site_fract_x
_atom_site_fract_y
_atom_site_fract_z
_atom_site_charge
C1       C      0.216200000000     0.940600000000     0.234200000000     0          
H2       H      0.174350000000     0.905540000000     0.239020000000     0          
C3       C      0.216200000000     0.440600000000     0.734200000000     0          
H4       H      0.174350000000     0.405540000000     0.739020000000     0          
C5       C      0.716200000000     0.940600000000     0.734200000000     0          
H6       H      0.674350000000     0.905540000000     0.739020000000     0          
C7       C      0.716200000000     0.440600000000     0.234200000000     0          
H8       H      0.674350000000     0.405540000000     0.239020000000     0          
C9       C      0.783800000000     0.059400000000     0.234200000000     0          
H10      H      0.825650000000     0.094460000000     0.239020000000     0          
C11      C      0.783800000000     0.559400000000     0.734200000000     0          
H12      H      0.825650000000     0.594460000000     0.739020000000     0          
C13      C      0.283800000000     0.059400000000     0.734200000000     0          
H14      H      0.325650000000     0.094460000000     0.739020000000     0          
C15      C      0.283800000000     0.559400000000     0.234200000000     0          
H16      H      0.325650000000     0.594460000000     0.239020000000     0          
C17      C      0.783800000000     0.940600000000     0.765800000000     0          
H18      H      0.825650000000     0.905540000000     0.760980000000     0          
C19      C      0.783800000000     0.440600000000     0.265800000000     0          
H20      H      0.825650000000     0.405540000000     0.260980000000     0          
C21      C      0.283800000000     0.940600000000     0.265800000000     0          
H22      H      0.325650000000     0.905540000000     0.260980000000     0          
C23      C      0.283800000000     0.440600000000     0.765800000000     0          
H24      H      0.325650000000     0.405540000000     0.760980000000     0          
C25      C      0.216200000000     0.059400000000     0.765800000000     0          
H26      H      0.174350000000     0.094460000000     0.760980000000     0          
C27      C      0.216200000000     0.559400000000     0.265800000000     0          
H28      H      0.174350000000     0.594460000000     0.260980000000     0          
C29      C      0.716200000000     0.059400000000     0.265800000000     0          
H30      H      0.674350000000     0.094460000000     0.260980000000     0          
C31      C      0.716200000000     0.559400000000     0.765800000000     0          
H32      H      0.674350000000     0.594460000000     0.760980000000     0          
C33      C      0.234200000000     0.216200000000     0.940600000000     0          
H34      H      0.239020000000     0.174350000000     0.905540000000     0          
C35      C      0.234200000000     0.716200000000     0.440600000000     0          
H36      H      0.239020000000     0.674350000000     0.405540000000     0          
C37      C      0.734200000000     0.216200000000     0.440600000000     0          
H38      H      0.739020000000     0.174350000000     0.405540000000     0          
C39      C      0.734200000000     0.716200000000     0.940600000000     0          
H40      H      0.739020000000     0.674350000000     0.905540000000     0          
C41      C      0.234200000000     0.783800000000     0.059400000000     0          
H42      H      0.239020000000     0.825650000000     0.094460000000     0          
C43      C      0.234200000000     0.283800000000     0.559400000000     0          
H44      H      0.239020000000     0.325650000000     0.594460000000     0          
C45      C      0.734200000000     0.783800000000     0.559400000000     0          
H46      H      0.739020000000     0.825650000000     0.594460000000     0          
C47      C      0.734200000000     0.283800000000     0.059400000000     0          
H48      H      0.739020000000     0.325650000000     0.094460000000     0          
C49      C      0.765800000000     0.783800000000     0.940600000000     0          
H50      H      0.760980000000     0.825650000000     0.905540000000     0          
C51      C      0.765800000000     0.283800000000     0.440600000000     0          
H52      H      0.760980000000     0.325650000000     0.405540000000     0          
C53      C      0.265800000000     0.783800000000     0.440600000000     0          
H54      H      0.260980000000     0.825650000000     0.405540000000     0          
C55      C      0.265800000000     0.283800000000     0.940600000000     0          
H56      H      0.260980000000     0.325650000000     0.905540000000     0          
C57      C      0.765800000000     0.216200000000     0.059400000000     0          
H58      H      0.760980000000     0.174350000000     0.094460000000     0          
C59      C      0.765800000000     0.716200000000     0.559400000000     0          
H60      H      0.760980000000     0.674350000000     0.594460000000     0          
C61      C      0.265800000000     0.216200000000     0.559400000000     0          
H62      H      0.260980000000     0.174350000000     0.594460000000     0          
C63      C      0.265800000000     0.716200000000     0.059400000000     0          
H64      H      0.260980000000     0.674350000000     0.094460000000     0          
C65      C      0.940600000000     0.234200000000     0.216200000000     0          
H66      H      0.905540000000     0.239020000000     0.174350000000     0          
C67      C      0.940600000000     0.734200000000     0.716200000000     0          
H68      H      0.905540000000     0.739020000000     0.674350000000     0          
C69      C      0.440600000000     0.234200000000     0.716200000000     0          
H70      H      0.405540000000     0.239020000000     0.674350000000     0          
C71      C      0.440600000000     0.734200000000     0.216200000000     0          
H72      H      0.405540000000     0.739020000000     0.174350000000     0          
C73      C      0.059400000000     0.234200000000     0.783800000000     0          
H74      H      0.094460000000     0.239020000000     0.825650000000     0          
C75      C      0.059400000000     0.734200000000     0.283800000000     0          
H76      H      0.094460000000     0.739020000000     0.325650000000     0          
C77      C      0.559400000000     0.234200000000     0.283800000000     0          
H78      H      0.594460000000     0.239020000000     0.325650000000     0          
C79      C      0.559400000000     0.734200000000     0.783800000000     0          
H80      H      0.594460000000     0.739020000000     0.825650000000     0          
C81      C      0.940600000000     0.765800000000     0.783800000000     0          
H82      H      0.905540000000     0.760980000000     0.825650000000     0          
C83      C      0.940600000000     0.265800000000     0.283800000000     0          
H84      H      0.905540000000     0.260980000000     0.325650000000     0          
C85      C      0.440600000000     0.765800000000     0.283800000000     0          
H86      H      0.405540000000     0.760980000000     0.325650000000     0          
C87      C      0.440600000000     0.265800000000     0.783800000000     0          
H88      H      0.405540000000     0.260980000000     0.825650000000     0          
C89      C      0.059400000000     0.765800000000     0.216200000000     0          
H90      H      0.094460000000     0.760980000000     0.174350000000     0          
C91      C      0.059400000000     0.265800000000     0.716200000000     0          
H92      H      0.094460000000     0.260980000000     0.674350000000     0          
C93      C      0.559400000000     0.765800000000     0.716200000000     0          
H94      H      0.594460000000     0.760980000000     0.674350000000     0          
C95      C      0.559400000000     0.265800000000     0.216200000000     0          
H96      H      0.594460000000     0.260980000000     0.174350000000     0          
C97      C      0.783800000000     0.059400000000     0.765800000000     0          
H98      H      0.825650000000     0.094460000000     0.760980000000     0          
C99      C      0.783800000000     0.559400000000     0.265800000000     0          
H100     H      0.825650000000     0.594460000000     0.260980000000     0          
C101     C      0.283800000000     0.059400000000     0.265800000000     0          
H102     H      0.325650000000     0.094460000000     0.260980000000     0          
C103     C      0.283800000000     0.559400000000     0.765800000000     0          
H104     H      0.325650000000     0.594460000000     0.760980000000     0          
C105     C      0.216200000000     0.940600000000     0.765800000000     0          
H106     H      0.174350000000     0.905540000000     0.760980000000     0          
C107     C      0.216200000000     0.440600000000     0.265800000000     0          
H108     H      0.174350000000     0.405540000000     0.260980000000     0          
C109     C      0.716200000000     0.940600000000     0.265800000000     0          
H110     H      0.674350000000     0.905540000000     0.260980000000     0          
C111     C      0.716200000000     0.440600000000     0.765800000000     0          
H112     H      0.674350000000     0.405540000000     0.760980000000     0          
C113     C      0.216200000000     0.059400000000     0.234200000000     0          
H114     H      0.174350000000     0.094460000000     0.239020000000     0          
C115     C      0.216200000000     0.559400000000     0.734200000000     0          
H116     H      0.174350000000     0.594460000000     0.739020000000     0          
C117     C      0.716200000000     0.059400000000     0.734200000000     0          
H118     H      0.674350000000     0.094460000000     0.739020000000     0          
C119     C      0.716200000000     0.559400000000     0.234200000000     0          
H120     H      0.674350000000     0.594460000000     0.239020000000     0          
C121     C      0.783800000000     0.940600000000     0.234200000000     0          
H122     H      0.825650000000     0.905540000000     0.239020000000     0          
C123     C      0.783800000000     0.440600000000     0.734200000000     0          
H124     H      0.825650000000     0.405540000000     0.739020000000     0          
C125     C      0.283800000000     0.940600000000     0.734200000000     0          
H126     H      0.325650000000     0.905540000000     0.739020000000     0          
C127     C      0.283800000000     0.440600000000     0.234200000000     0          
H128     H      0.325650000000     0.405540000000     0.239020000000     0          
C129     C      0.765800000000     0.783800000000     0.059400000000     0          
H130     H      0.760980000000     0.825650000000     0.094460000000     0          
C131     C      0.765800000000     0.283800000000     0.559400000000     0          
H132     H      0.760980000000     0.325650000000     0.594460000000     0          
C133     C      0.265800000000     0.783800000000     0.559400000000     0          
H134     H      0.260980000000     0.825650000000     0.594460000000     0          
C135     C      0.265800000000     0.283800000000     0.059400000000     0          
H136     H      0.260980000000     0.325650000000     0.094460000000     0          
C137     C      0.765800000000     0.216200000000     0.940600000000     0          
H138     H      0.760980000000     0.174350000000     0.905540000000     0          
C139     C      0.765800000000     0.716200000000     0.440600000000     0          
H140     H      0.760980000000     0.674350000000     0.405540000000     0          
C141     C      0.265800000000     0.216200000000     0.440600000000     0          
H142     H      0.260980000000     0.174350000000     0.405540000000     0          
C143     C      0.265800000000     0.716200000000     0.940600000000     0          
H144     H      0.260980000000     0.674350000000     0.905540000000     0          
C145     C      0.234200000000     0.216200000000     0.059400000000     0          
H146     H      0.239020000000     0.174350000000     0.094460000000     0          
C147     C      0.234200000000     0.716200000000     0.559400000000     0          
H148     H      0.239020000000     0.674350000000     0.594460000000     0          
C149     C      0.734200000000     0.216200000000     0.559400000000     0          
H150     H      0.739020000000     0.174350000000     0.594460000000     0          
C151     C      0.734200000000     0.716200000000     0.059400000000     0          
H152     H      0.739020000000     0.674350000000     0.094460000000     0          
C153     C      0.234200000000     0.783800000000     0.940600000000     0          
H154     H      0.239020000000     0.825650000000     0.905540000000     0          
C155     C      0.234200000000     0.283800000000     0.440600000000     0          
H156     H      0.239020000000     0.325650000000     0.405540000000     0          
C157     C      0.734200000000     0.783800000000     0.440600000000     0          
H158     H      0.739020000000     0.825650000000     0.405540000000     0          
C159     C      0.734200000000     0.283800000000     0.940600000000     0          
H160     H      0.739020000000     0.325650000000     0.905540000000     0          
C161     C      0.059400000000     0.765800000000     0.783800000000     0          
H162     H      0.094460000000     0.760980000000     0.825650000000     0          
C163     C      0.059400000000     0.265800000000     0.283800000000     0          
H164     H      0.094460000000     0.260980000000     0.325650000000     0          
C165     C      0.559400000000     0.765800000000     0.283800000000     0          
H166     H      0.594460000000     0.760980000000     0.325650000000     0          
C167     C      0.559400000000     0.265800000000     0.783800000000     0          
H168     H      0.594460000000     0.260980000000     0.825650000000     0          
C169     C      0.940600000000     0.765800000000     0.216200000000     0          
H170     H      0.905540000000     0.760980000000     0.174350000000     0          
C171     C      0.940600000000     0.265800000000     0.716200000000     0          
H172     H      0.905540000000     0.260980000000     0.674350000000     0          
C173     C      0.440600000000     0.765800000000     0.716200000000     0          
H174     H      0.405540000000     0.760980000000     0.674350000000     0          
C175     C      0.440600000000     0.265800000000     0.216200000000     0          
H176     H      0.405540000000     0.260980000000     0.174350000000     0          
C177     C      0.059400000000     0.234200000000     0.216200000000     0          
H178     H      0.094460000000     0.239020000000     0.174350000000     0          
C179     C      0.059400000000     0.734200000000     0.716200000000     0          
H180     H      0.094460000000     0.739020000000     0.674350000000     0          
C181     C      0.559400000000     0.234200000000     0.716200000000     0          
H182     H      0.594460000000     0.239020000000     0.674350000000     0          
C183     C      0.559400000000     0.734200000000     0.216200000000     0          
H184     H      0.594460000000     0.739020000000     0.174350000000     0          
C185     C      0.940600000000     0.234200000000     0.783800000000     0          
H186     H      0.905540000000     0.239020000000     0.825650000000     0          
C187     C      0.940600000000     0.734200000000     0.283800000000     0          
H188     H      0.905540000000     0.739020000000     0.325650000000     0          
C189     C      0.440600000000     0.234200000000     0.283800000000     0          
H190     H      0.405540000000     0.239020000000     0.325650000000     0          
C191     C      0.440600000000     0.734200000000     0.783800000000     0          
H192     H      0.405540000000     0.739020000000     0.825650000000     0          
Zr193    Zr     0.000000000000     0.000000000000     0.116800000000     0          
O194     O      0.000000000000     0.000000000000     0.218000000000     0          
Zr195    Zr     0.000000000000     0.500000000000     0.616800000000     0          
O196     O      0.000000000000     0.500000000000     0.718000000000     0          
Zr197    Zr     0.500000000000     0.000000000000     0.616800000000     0          
O198     O      0.500000000000     0.000000000000     0.718000000000     0          
Zr199    Zr     0.500000000000     0.500000000000     0.116800000000     0          
O200     O      0.500000000000     0.500000000000     0.218000000000     0          
Zr201    Zr     0.000000000000     0.000000000000     0.883200000000     0          
O202     O      0.000000000000     0.000000000000     0.782000000000     0          
Zr203    Zr     0.000000000000     0.500000000000     0.383200000000     0          
O204     O      0.000000000000     0.500000000000     0.282000000000     0          
Zr205    Zr     0.500000000000     0.000000000000     0.383200000000     0          
O206     O      0.500000000000     0.000000000000     0.282000000000     0          
Zr207    Zr     0.500000000000     0.500000000000     0.883200000000     0          
O208     O      0.500000000000     0.500000000000     0.782000000000     0          
Zr209    Zr     0.116800000000     0.000000000000     0.000000000000     0          
O210     O      0.218000000000     0.000000000000     0.000000000000     0          
Zr211    Zr     0.116800000000     0.500000000000     0.500000000000     0          
O212     O      0.218000000000     0.500000000000     0.500000000000     0          
Zr213    Zr     0.616800000000     0.000000000000     0.500000000000     0          
O214     O      0.718000000000     0.000000000000     0.500000000000     0          
Zr215    Zr     0.616800000000     0.500000000000     0.000000000000     0          
O216     O      0.718000000000     0.500000000000     0.000000000000     0          
Zr217    Zr     0.883200000000     0.000000000000     0.000000000000     0          
O218     O      0.782000000000     0.000000000000     0.000000000000     0          
Zr219    Zr     0.883200000000     0.500000000000     0.500000000000     0          
O220     O      0.782000000000     0.500000000000     0.500000000000     0          
Zr221    Zr     0.383200000000     0.000000000000     0.500000000000     0          
O222     O      0.282000000000     0.000000000000     0.500000000000     0          
Zr223    Zr     0.383200000000     0.500000000000     0.000000000000     0          
O224     O      0.282000000000     0.500000000000     0.000000000000     0          
Zr225    Zr     0.000000000000     0.116800000000     0.000000000000     0          
O226     O      0.000000000000     0.218000000000     0.000000000000     0          
Zr227    Zr     0.000000000000     0.616800000000     0.500000000000     0          
O228     O      0.000000000000     0.718000000000     0.500000000000     0          
Zr229    Zr     0.500000000000     0.116800000000     0.500000000000     0          
O230     O      0.500000000000     0.218000000000     0.500000000000     0          
Zr231    Zr     0.500000000000     0.616800000000     0.000000000000     0          
O232     O      0.500000000000     0.718000000000     0.000000000000     0          
Zr233    Zr     0.000000000000     0.883200000000     0.000000000000     0          
O234     O      0.000000000000     0.782000000000     0.000000000000     0          
Zr235    Zr     0.000000000000     0.383200000000     0.500000000000     0          
O236     O      0.000000000000     0.282000000000     0.500000000000     0          
Zr237    Zr     0.500000000000     0.883200000000     0.500000000000     0          
O238     O      0.500000000000     0.782000000000     0.500000000000     0          
Zr239    Zr     0.500000000000     0.383200000000     0.000000000000     0          
O240     O      0.500000000000     0.282000000000     0.000000000000     0          
O241     O      0.058800000000     0.058800000000     0.058800000000     0          
O242     O      0.058800000000     0.558800000000     0.558800000000     0          
O243     O      0.558800000000     0.058800000000     0.558800000000     0          
O244     O      0.558800000000     0.558800000000     0.058800000000     0          
O245     O      0.941200000000     0.941200000000     0.058800000000     0          
O246     O      0.941200000000     0.441200000000     0.558800000000     0          
O247     O      0.441200000000     0.941200000000     0.558800000000     0          
O248     O      0.441200000000     0.441200000000     0.058800000000     0          
O249     O      0.941200000000     0.058800000000     0.941200000000     0          
O250     O      0.941200000000     0.558800000000     0.441200000000     0          
O251     O      0.441200000000     0.058800000000     0.441200000000     0          
O252     O      0.441200000000     0.558800000000     0.941200000000     0          
O253     O      0.058800000000     0.941200000000     0.941200000000     0          
O254     O      0.058800000000     0.441200000000     0.441200000000     0          
O255     O      0.558800000000     0.941200000000     0.441200000000     0          
O256     O      0.558800000000     0.441200000000     0.941200000000     0          
O257     O      0.941200000000     0.941200000000     0.941200000000     0          
O258     O      0.941200000000     0.441200000000     0.441200000000     0          
O259     O      0.441200000000     0.941200000000     0.441200000000     0          
O260     O      0.441200000000     0.441200000000     0.941200000000     0          
O261     O      0.058800000000     0.058800000000     0.941200000000     0          
O262     O      0.058800000000     0.558800000000     0.441200000000     0          
O263     O      0.558800000000     0.058800000000     0.441200000000     0          
O264     O      0.558800000000     0.558800000000     0.941200000000     0          
O265     O      0.058800000000     0.941200000000     0.058800000000     0          
O266     O      0.058800000000     0.441200000000     0.558800000000     0          
O267     O      0.558800000000     0.941200000000     0.558800000000     0          
O268     O      0.558800000000     0.441200000000     0.058800000000     0          
O269     O      0.941200000000     0.058800000000     0.058800000000     0          
O270     O      0.941200000000     0.558800000000     0.558800000000     0          
O271     O      0.441200000000     0.058800000000     0.558800000000     0          
O272     O      0.441200000000     0.558800000000     0.058800000000     0          
O273     O      0.088000000000     0.000000000000     0.172000000000     0          
O274     O      0.175000000000     0.000000000000     0.085000000000     0          
C275     C      0.150000000000     0.000000000000     0.147000000000     0          
C276     C      0.210000000000     0.000000000000     0.190000000000     0          
O277     O      0.088000000000     0.500000000000     0.672000000000     0          
O278     O      0.175000000000     0.500000000000     0.585000000000     0          
C279     C      0.150000000000     0.500000000000     0.647000000000     0          
C280     C      0.210000000000     0.500000000000     0.690000000000     0          
O281     O      0.588000000000     0.000000000000     0.672000000000     0          
O282     O      0.675000000000     0.000000000000     0.585000000000     0          
C283     C      0.650000000000     0.000000000000     0.647000000000     0          
C284     C      0.710000000000     0.000000000000     0.690000000000     0          
O285     O      0.588000000000     0.500000000000     0.172000000000     0          
O286     O      0.675000000000     0.500000000000     0.085000000000     0          
C287     C      0.650000000000     0.500000000000     0.147000000000     0          
C288     C      0.710000000000     0.500000000000     0.190000000000     0          
O289     O      0.912000000000     0.000000000000     0.172000000000     0          
O290     O      0.825000000000     0.000000000000     0.085000000000     0          
C291     C      0.850000000000     0.000000000000     0.147000000000     0          
C292     C      0.790000000000     0.000000000000     0.190000000000     0          
O293     O      0.912000000000     0.500000000000     0.672000000000     0          
O294     O      0.825000000000     0.500000000000     0.585000000000     0          
C295     C      0.850000000000     0.500000000000     0.647000000000     0          
C296     C      0.790000000000     0.500000000000     0.690000000000     0          
O297     O      0.412000000000     0.000000000000     0.672000000000     0          
O298     O      0.325000000000     0.000000000000     0.585000000000     0          
C299     C      0.350000000000     0.000000000000     0.647000000000     0          
C300     C      0.290000000000     0.000000000000     0.690000000000     0          
O301     O      0.412000000000     0.500000000000     0.172000000000     0          
O302     O      0.325000000000     0.500000000000     0.085000000000     0          
C303     C      0.350000000000     0.500000000000     0.147000000000     0          
C304     C      0.290000000000     0.500000000000     0.190000000000     0          
O305     O      0.912000000000     0.000000000000     0.828000000000     0          
O306     O      0.825000000000     0.000000000000     0.915000000000     0          
C307     C      0.850000000000     0.000000000000     0.853000000000     0          
C308     C      0.790000000000     0.000000000000     0.810000000000     0          
O309     O      0.912000000000     0.500000000000     0.328000000000     0          
O310     O      0.825000000000     0.500000000000     0.415000000000     0          
C311     C      0.850000000000     0.500000000000     0.353000000000     0          
C312     C      0.790000000000     0.500000000000     0.310000000000     0          
O313     O      0.412000000000     0.000000000000     0.328000000000     0          
O314     O      0.325000000000     0.000000000000     0.415000000000     0          
C315     C      0.350000000000     0.000000000000     0.353000000000     0          
C316     C      0.290000000000     0.000000000000     0.310000000000     0          
O317     O      0.412000000000     0.500000000000     0.828000000000     0          
O318     O      0.325000000000     0.500000000000     0.915000000000     0          
C319     C      0.350000000000     0.500000000000     0.853000000000     0          
C320     C      0.290000000000     0.500000000000     0.810000000000     0          
O321     O      0.088000000000     0.000000000000     0.828000000000     0          
O322     O      0.175000000000     0.000000000000     0.915000000000     0          
C323     C      0.150000000000     0.000000000000     0.853000000000     0          
C324     C      0.210000000000     0.000000000000     0.810000000000     0          
O325     O      0.088000000000     0.500000000000     0.328000000000     0          
O326     O      0.175000000000     0.500000000000     0.415000000000     0          
C327     C      0.150000000000     0.500000000000     0.353000000000     0          
C328     C      0.210000000000     0.500000000000     0.310000000000     0          
O329     O      0.588000000000     0.000000000000     0.328000000000     0          
O330     O      0.675000000000     0.000000000000     0.415000000000     0          
C331     C      0.650000000000     0.000000000000     0.353000000000     0          
C332     C      0.710000000000     0.000000000000     0.310000000000     0          
O333     O      0.588000000000     0.500000000000     0.828000000000     0          
O334     O      0.675000000000     0.500000000000     0.915000000000     0          
C335     C      0.650000000000     0.500000000000     0.853000000000     0          
C336     C      0.710000000000     0.500000000000     0.810000000000     0          
O337     O      0.172000000000     0.088000000000     0.000000000000     0          
O338     O      0.085000000000     0.175000000000     0.000000000000     0          
C339     C      0.147000000000     0.150000000000     0.000000000000     0          
C340     C      0.190000000000     0.210000000000     0.000000000000     0          
O341     O      0.172000000000     0.588000000000     0.500000000000     0          
O342     O      0.085000000000     0.675000000000     0.500000000000     0          
C343     C      0.147000000000     0.650000000000     0.500000000000     0          
C344     C      0.190000000000     0.710000000000     0.500000000000     0          
O345     O      0.672000000000     0.088000000000     0.500000000000     0          
O346     O      0.585000000000     0.175000000000     0.500000000000     0          
C347     C      0.647000000000     0.150000000000     0.500000000000     0          
C348     C      0.690000000000     0.210000000000     0.500000000000     0          
O349     O      0.672000000000     0.588000000000     0.000000000000     0          
O350     O      0.585000000000     0.675000000000     0.000000000000     0          
C351     C      0.647000000000     0.650000000000     0.000000000000     0          
C352     C      0.690000000000     0.710000000000     0.000000000000     0          
O353     O      0.172000000000     0.912000000000     0.000000000000     0          
O354     O      0.085000000000     0.825000000000     0.000000000000     0          
C355     C      0.147000000000     0.850000000000     0.000000000000     0          
C356     C      0.190000000000     0.790000000000     0.000000000000     0          
O357     O      0.172000000000     0.412000000000     0.500000000000     0          
O358     O      0.085000000000     0.325000000000     0.500000000000     0          
C359     C      0.147000000000     0.350000000000     0.500000000000     0          
C360     C      0.190000000000     0.290000000000     0.500000000000     0          
O361     O      0.672000000000     0.912000000000     0.500000000000     0          
O362     O      0.585000000000     0.825000000000     0.500000000000     0          
C363     C      0.647000000000     0.850000000000     0.500000000000     0          
C364     C      0.690000000000     0.790000000000     0.500000000000     0          
O365     O      0.672000000000     0.412000000000     0.000000000000     0          
O366     O      0.585000000000     0.325000000000     0.000000000000     0          
C367     C      0.647000000000     0.350000000000     0.000000000000     0          
C368     C      0.690000000000     0.290000000000     0.000000000000     0          
O369     O      0.828000000000     0.912000000000     0.000000000000     0          
O370     O      0.915000000000     0.825000000000     0.000000000000     0          
C371     C      0.853000000000     0.850000000000     0.000000000000     0          
C372     C      0.810000000000     0.790000000000     0.000000000000     0          
O373     O      0.828000000000     0.412000000000     0.500000000000     0          
O374     O      0.915000000000     0.325000000000     0.500000000000     0          
C375     C      0.853000000000     0.350000000000     0.500000000000     0          
C376     C      0.810000000000     0.290000000000     0.500000000000     0          
O377     O      0.328000000000     0.912000000000     0.500000000000     0          
O378     O      0.415000000000     0.825000000000     0.500000000000     0          
C379     C      0.353000000000     0.850000000000     0.500000000000     0          
C380     C      0.310000000000     0.790000000000     0.500000000000     0          
O381     O      0.328000000000     0.412000000000     0.000000000000     0          
O382     O      0.415000000000     0.325000000000     0.000000000000     0          
C383     C      0.353000000000     0.350000000000     0.000000000000     0          
C384     C      0.310000000000     0.290000000000     0.000000000000     0          
O385     O      0.828000000000     0.088000000000     0.000000000000     0          
O386     O      0.915000000000     0.175000000000     0.000000000000     0          
C387     C      0.853000000000     0.150000000000     0.000000000000     0          
C388     C      0.810000000000     0.210000000000     0.000000000000     0          
O389     O      0.828000000000     0.588000000000     0.500000000000     0          
O390     O      0.915000000000     0.675000000000     0.500000000000     0          
C391     C      0.853000000000     0.650000000000     0.500000000000     0          
C392     C      0.810000000000     0.710000000000     0.500000000000     0          
O393     O      0.328000000000     0.088000000000     0.500000000000     0          
O394     O      0.415000000000     0.175000000000     0.500000000000     0          
C395     C      0.353000000000     0.150000000000     0.500000000000     0          
C396     C      0.310000000000     0.210000000000     0.500000000000     0          
O397     O      0.328000000000     0.588000000000     0.000000000000     0          
O398     O      0.415000000000     0.675000000000     0.000000000000     0          
C399     C      0.353000000000     0.650000000000     0.000000000000     0          
C400     C      0.310000000000     0.710000000000     0.000000000000     0          
O401     O      0.000000000000     0.172000000000     0.088000000000     0          
O402     O      0.000000000000     0.085000000000     0.175000000000     0          
C403     C      0.000000000000     0.147000000000     0.150000000000     0          
C404     C      0.000000000000     0.190000000000     0.210000000000     0          
O405     O      0.000000000000     0.672000000000     0.588000000000     0          
O406     O      0.000000000000     0.585000000000     0.675000000000     0          
C407     C      0.000000000000     0.647000000000     0.650000000000     0          
C408     C      0.000000000000     0.690000000000     0.710000000000     0          
O409     O      0.500000000000     0.172000000000     0.588000000000     0          
O410     O      0.500000000000     0.085000000000     0.675000000000     0          
C411     C      0.500000000000     0.147000000000     0.650000000000     0          
C412     C      0.500000000000     0.190000000000     0.710000000000     0          
O413     O      0.500000000000     0.672000000000     0.088000000000     0          
O414     O      0.500000000000     0.585000000000     0.175000000000     0          
C415     C      0.500000000000     0.647000000000     0.150000000000     0          
C416     C      0.500000000000     0.690000000000     0.210000000000     0          
O417     O      0.000000000000     0.172000000000     0.912000000000     0          
O418     O      0.000000000000     0.085000000000     0.825000000000     0          
C419     C      0.000000000000     0.147000000000     0.850000000000     0          
C420     C      0.000000000000     0.190000000000     0.790000000000     0          
O421     O      0.000000000000     0.672000000000     0.412000000000     0          
O422     O      0.000000000000     0.585000000000     0.325000000000     0          
C423     C      0.000000000000     0.647000000000     0.350000000000     0          
C424     C      0.000000000000     0.690000000000     0.290000000000     0          
O425     O      0.500000000000     0.172000000000     0.412000000000     0          
O426     O      0.500000000000     0.085000000000     0.325000000000     0          
C427     C      0.500000000000     0.147000000000     0.350000000000     0          
C428     C      0.500000000000     0.190000000000     0.290000000000     0          
O429     O      0.500000000000     0.672000000000     0.912000000000     0          
O430     O      0.500000000000     0.585000000000     0.825000000000     0          
C431     C      0.500000000000     0.647000000000     0.850000000000     0          
C432     C      0.500000000000     0.690000000000     0.790000000000     0          
O433     O      0.000000000000     0.828000000000     0.912000000000     0          
O434     O      0.000000000000     0.915000000000     0.825000000000     0          
C435     C      0.000000000000     0.853000000000     0.850000000000     0          
C436     C      0.000000000000     0.810000000000     0.790000000000     0          
O437     O      0.000000000000     0.328000000000     0.412000000000     0          
O438     O      0.000000000000     0.415000000000     0.325000000000     0          
C439     C      0.000000000000     0.353000000000     0.350000000000     0          
C440     C      0.000000000000     0.310000000000     0.290000000000     0          
O441     O      0.500000000000     0.828000000000     0.412000000000     0          
O442     O      0.500000000000     0.915000000000     0.325000000000     0          
C443     C      0.500000000000     0.853000000000     0.350000000000     0          
C444     C      0.500000000000     0.810000000000     0.290000000000     0          
O445     O      0.500000000000     0.328000000000     0.912000000000     0          
O446     O      0.500000000000     0.415000000000     0.825000000000     0          
C447     C      0.500000000000     0.353000000000     0.850000000000     0          
C448     C      0.500000000000     0.310000000000     0.790000000000     0          
O449     O      0.000000000000     0.828000000000     0.088000000000     0          
O450     O      0.000000000000     0.915000000000     0.175000000000     0          
C451     C      0.000000000000     0.853000000000     0.150000000000     0          
C452     C      0.000000000000     0.810000000000     0.210000000000     0          
O453     O      0.000000000000     0.328000000000     0.588000000000     0          
O454     O      0.000000000000     0.415000000000     0.675000000000     0          
C455     C      0.000000000000     0.353000000000     0.650000000000     0          
C456     C      0.000000000000     0.310000000000     0.710000000000     0          
O457     O      0.500000000000     0.828000000000     0.588000000000     0          
O458     O      0.500000000000     0.915000000000     0.675000000000     0          
C459     C      0.500000000000     0.853000000000     0.650000000000     0          
C460     C      0.500000000000     0.810000000000     0.710000000000     0          
O461     O      0.500000000000     0.328000000000     0.088000000000     0          
O462     O      0.500000000000     0.415000000000     0.175000000000     0          
C463     C      0.500000000000     0.353000000000     0.150000000000     0          
C464     C      0.500000000000     0.310000000000     0.210000000000     0          


