data_UMUMOG

_audit_creation_method RASPA-1.0
_audit_creation_date 2020-11-2
_audit_author_name 'Rocio Bueno-Perez'

_cell_length_a    29.983
_cell_length_b    29.983
_cell_length_c    29.983
_cell_angle_alpha 90
_cell_angle_beta  90
_cell_angle_gamma 90
_cell_volume      26954.1

_symmetry_cell_setting          triclinic
_symmetry_space_group_name_Hall 'P 1'
_symmetry_space_group_name_H-M  'P 1'
_symmetry_Int_Tables_number     1

_symmetry_equiv_pos_as_xyz 'x,y,z'

loop_
_atom_site_label
_atom_site_type_symbol
_atom_site_fract_x
_atom_site_fract_y
_atom_site_fract_z
_atom_site_charge
H1       H      0.135900000000     0.223100000000     0.976900000000     0          
H2       H      0.135900000000     0.723100000000     0.476900000000     0          
H3       H      0.635900000000     0.223100000000     0.476900000000     0          
H4       H      0.635900000000     0.723100000000     0.976900000000     0          
H5       H      0.864100000000     0.776900000000     0.976900000000     0          
H6       H      0.864100000000     0.276900000000     0.476900000000     0          
H7       H      0.364100000000     0.776900000000     0.476900000000     0          
H8       H      0.364100000000     0.276900000000     0.976900000000     0          
H17      H      0.976900000000     0.135900000000     0.223100000000     0          
H18      H      0.976900000000     0.635900000000     0.723100000000     0          
H19      H      0.476900000000     0.135900000000     0.723100000000     0          
H20      H      0.476900000000     0.635900000000     0.223100000000     0          
H21      H      0.976900000000     0.864100000000     0.776900000000     0          
H22      H      0.976900000000     0.364100000000     0.276900000000     0          
H23      H      0.476900000000     0.864100000000     0.276900000000     0          
H24      H      0.476900000000     0.364100000000     0.776900000000     0          
H26      H      0.023100000000     0.364100000000     0.723100000000     0          
H29      H      0.023100000000     0.135900000000     0.776900000000     0          
H33      H      0.223100000000     0.976900000000     0.135900000000     0          
H34      H      0.223100000000     0.476900000000     0.635900000000     0          
H35      H      0.723100000000     0.976900000000     0.635900000000     0          
H36      H      0.723100000000     0.476900000000     0.135900000000     0          
H37      H      0.776900000000     0.976900000000     0.864100000000     0          
H38      H      0.776900000000     0.476900000000     0.364100000000     0          
H39      H      0.276900000000     0.976900000000     0.364100000000     0          
H40      H      0.276900000000     0.476900000000     0.864100000000     0          
H57      H      0.223100000000     0.864100000000     0.976900000000     0          
H58      H      0.223100000000     0.364100000000     0.476900000000     0          
H59      H      0.723100000000     0.864100000000     0.476900000000     0          
H60      H      0.723100000000     0.364100000000     0.976900000000     0          
H61      H      0.776900000000     0.135900000000     0.976900000000     0          
H62      H      0.776900000000     0.635900000000     0.476900000000     0          
H63      H      0.276900000000     0.135900000000     0.476900000000     0          
H64      H      0.276900000000     0.635900000000     0.976900000000     0          
H65      H      0.135900000000     0.976900000000     0.776900000000     0          
H66      H      0.135900000000     0.476900000000     0.276900000000     0          
H67      H      0.635900000000     0.976900000000     0.276900000000     0          
H68      H      0.635900000000     0.476900000000     0.776900000000     0          
H69      H      0.864100000000     0.976900000000     0.223100000000     0          
H70      H      0.864100000000     0.476900000000     0.723100000000     0          
H71      H      0.364100000000     0.976900000000     0.723100000000     0          
H72      H      0.364100000000     0.476900000000     0.223100000000     0          
H82      H      0.976900000000     0.723100000000     0.364100000000     0          
H83      H      0.476900000000     0.223100000000     0.364100000000     0          
H85      H      0.976900000000     0.776900000000     0.135900000000     0          
H86      H      0.976900000000     0.276900000000     0.635900000000     0          
H87      H      0.476900000000     0.776900000000     0.635900000000     0          
H88      H      0.476900000000     0.276900000000     0.135900000000     0          
H97      H      0.864100000000     0.776900000000     0.023100000000     0          
H98      H      0.864100000000     0.276900000000     0.523100000000     0          
H99      H      0.364100000000     0.776900000000     0.523100000000     0          
H100     H      0.364100000000     0.276900000000     0.023100000000     0          
H101     H      0.135900000000     0.223100000000     0.023100000000     0          
H102     H      0.135900000000     0.723100000000     0.523100000000     0          
H103     H      0.635900000000     0.223100000000     0.523100000000     0          
H104     H      0.635900000000     0.723100000000     0.023100000000     0          
H113     H      0.023100000000     0.864100000000     0.776900000000     0          
H114     H      0.023100000000     0.364100000000     0.276900000000     0          
H115     H      0.523100000000     0.864100000000     0.276900000000     0          
H116     H      0.523100000000     0.364100000000     0.776900000000     0          
H117     H      0.023100000000     0.135900000000     0.223100000000     0          
H118     H      0.023100000000     0.635900000000     0.723100000000     0          
H119     H      0.523100000000     0.135900000000     0.723100000000     0          
H120     H      0.523100000000     0.635900000000     0.223100000000     0          
H121     H      0.976900000000     0.135900000000     0.776900000000     0          
H126     H      0.976900000000     0.364100000000     0.723100000000     0          
H129     H      0.776900000000     0.023100000000     0.864100000000     0          
H130     H      0.776900000000     0.523100000000     0.364100000000     0          
H131     H      0.276900000000     0.023100000000     0.364100000000     0          
H132     H      0.276900000000     0.523100000000     0.864100000000     0          
H133     H      0.223100000000     0.023100000000     0.135900000000     0          
H134     H      0.223100000000     0.523100000000     0.635900000000     0          
H135     H      0.723100000000     0.023100000000     0.635900000000     0          
H136     H      0.723100000000     0.523100000000     0.135900000000     0          
H153     H      0.776900000000     0.135900000000     0.023100000000     0          
H154     H      0.776900000000     0.635900000000     0.523100000000     0          
H155     H      0.276900000000     0.135900000000     0.523100000000     0          
H156     H      0.276900000000     0.635900000000     0.023100000000     0          
H157     H      0.223100000000     0.864100000000     0.023100000000     0          
H158     H      0.223100000000     0.364100000000     0.523100000000     0          
H159     H      0.723100000000     0.864100000000     0.523100000000     0          
H160     H      0.723100000000     0.364100000000     0.023100000000     0          
H161     H      0.864100000000     0.023100000000     0.223100000000     0          
H162     H      0.864100000000     0.523100000000     0.723100000000     0          
H163     H      0.364100000000     0.023100000000     0.723100000000     0          
H164     H      0.364100000000     0.523100000000     0.223100000000     0          
H165     H      0.135900000000     0.023100000000     0.776900000000     0          
H166     H      0.135900000000     0.523100000000     0.276900000000     0          
H167     H      0.635900000000     0.023100000000     0.276900000000     0          
H168     H      0.635900000000     0.523100000000     0.776900000000     0          
H177     H      0.023100000000     0.776900000000     0.135900000000     0          
H178     H      0.023100000000     0.276900000000     0.635900000000     0          
H179     H      0.523100000000     0.776900000000     0.635900000000     0          
H180     H      0.523100000000     0.276900000000     0.135900000000     0          
H182     H      0.023100000000     0.723100000000     0.364100000000     0          
H183     H      0.523100000000     0.223100000000     0.364100000000     0          
Zr193    Zr     0.082510000000     0.500000000000     0.000000000000     0          
Zr194    Zr     0.582510000000     0.500000000000     0.500000000000     0          
Zr195    Zr     0.917490000000     0.500000000000     0.000000000000     0          
Zr196    Zr     0.917490000000     0.000000000000     0.500000000000     0          
Zr197    Zr     0.417490000000     0.500000000000     0.500000000000     0          
Zr198    Zr     0.582510000000     0.000000000000     0.000000000000     0          
Zr199    Zr     0.000000000000     0.082510000000     0.500000000000     0          
Zr200    Zr     0.000000000000     0.582510000000     0.000000000000     0          
Zr201    Zr     0.500000000000     0.582510000000     0.500000000000     0          
Zr202    Zr     0.000000000000     0.917490000000     0.500000000000     0          
Zr203    Zr     0.000000000000     0.417490000000     0.000000000000     0          
Zr204    Zr     0.500000000000     0.082510000000     0.000000000000     0          
Zr205    Zr     0.500000000000     0.000000000000     0.082510000000     0          
Zr206    Zr     0.500000000000     0.500000000000     0.582510000000     0          
Zr207    Zr     0.500000000000     0.000000000000     0.917490000000     0          
Zr208    Zr     0.500000000000     0.500000000000     0.417490000000     0          
Zr209    Zr     0.000000000000     0.500000000000     0.917490000000     0          
Zr210    Zr     0.000000000000     0.000000000000     0.582510000000     0          
Zr211    Zr     0.500000000000     0.917490000000     0.000000000000     0          
Zr212    Zr     0.500000000000     0.417490000000     0.500000000000     0          
Zr213    Zr     0.082510000000     0.000000000000     0.500000000000     0          
Zr214    Zr     0.417490000000     0.000000000000     0.000000000000     0          
Zr215    Zr     0.000000000000     0.000000000000     0.417490000000     0          
Zr216    Zr     0.000000000000     0.500000000000     0.082510000000     0          
O217     O      0.119650000000     0.436300000000     0.000000000000     0          
C218     C      0.128600000000     0.316200000000     0.000000000000     0          
H219     H      0.098400000000     0.308100000000     0.000000000000     0          
C220     C      0.160400000000     0.283300000000     0.000000000000     0          
C221     C      0.229100000000     0.248300000000     0.000000000000     0          
H222     H      0.211900000000     0.221300000000     0.000000000000     0          
N223     N      0.144100000000     0.236700000000     0.000000000000     0          
O224     O      0.119650000000     0.936300000000     0.500000000000     0          
C225     C      0.128600000000     0.816200000000     0.500000000000     0          
H226     H      0.098400000000     0.808100000000     0.500000000000     0          
C227     C      0.160400000000     0.783300000000     0.500000000000     0          
C228     C      0.229100000000     0.748300000000     0.500000000000     0          
H229     H      0.211900000000     0.721300000000     0.500000000000     0          
N230     N      0.144100000000     0.736700000000     0.500000000000     0          
O231     O      0.619650000000     0.436300000000     0.500000000000     0          
C232     C      0.628600000000     0.316200000000     0.500000000000     0          
H233     H      0.598400000000     0.308100000000     0.500000000000     0          
C234     C      0.660400000000     0.283300000000     0.500000000000     0          
C235     C      0.729100000000     0.248300000000     0.500000000000     0          
H236     H      0.711900000000     0.221300000000     0.500000000000     0          
N237     N      0.644100000000     0.236700000000     0.500000000000     0          
O238     O      0.619650000000     0.936300000000     0.000000000000     0          
C239     C      0.628600000000     0.816200000000     0.000000000000     0          
H240     H      0.598400000000     0.808100000000     0.000000000000     0          
C241     C      0.660400000000     0.783300000000     0.000000000000     0          
C242     C      0.729100000000     0.748300000000     0.000000000000     0          
H243     H      0.711900000000     0.721300000000     0.000000000000     0          
N244     N      0.644100000000     0.736700000000     0.000000000000     0          
O245     O      0.880350000000     0.563700000000     0.000000000000     0          
C246     C      0.871400000000     0.683800000000     0.000000000000     0          
H247     H      0.901600000000     0.691900000000     0.000000000000     0          
C248     C      0.839600000000     0.716700000000     0.000000000000     0          
C249     C      0.770900000000     0.751700000000     0.000000000000     0          
H250     H      0.788100000000     0.778700000000     0.000000000000     0          
N251     N      0.855900000000     0.763300000000     0.000000000000     0          
O252     O      0.880350000000     0.063700000000     0.500000000000     0          
C253     C      0.871400000000     0.183800000000     0.500000000000     0          
H254     H      0.901600000000     0.191900000000     0.500000000000     0          
C255     C      0.839600000000     0.216700000000     0.500000000000     0          
C256     C      0.770900000000     0.251700000000     0.500000000000     0          
H257     H      0.788100000000     0.278700000000     0.500000000000     0          
N258     N      0.855900000000     0.263300000000     0.500000000000     0          
O259     O      0.380350000000     0.563700000000     0.500000000000     0          
C260     C      0.371400000000     0.683800000000     0.500000000000     0          
H261     H      0.401600000000     0.691900000000     0.500000000000     0          
C262     C      0.339600000000     0.716700000000     0.500000000000     0          
C263     C      0.270900000000     0.751700000000     0.500000000000     0          
N265     N      0.355900000000     0.763300000000     0.500000000000     0          
O266     O      0.380350000000     0.063700000000     0.000000000000     0          
C267     C      0.371400000000     0.183800000000     0.000000000000     0          
H268     H      0.401600000000     0.191900000000     0.000000000000     0          
C269     C      0.339600000000     0.216700000000     0.000000000000     0          
C270     C      0.270900000000     0.251700000000     0.000000000000     0          
N272     N      0.355900000000     0.263300000000     0.000000000000     0          
O273     O      0.880350000000     0.436300000000     0.000000000000     0          
C274     C      0.871400000000     0.316200000000     0.000000000000     0          
H275     H      0.901600000000     0.308100000000     0.000000000000     0          
C276     C      0.839600000000     0.283300000000     0.000000000000     0          
C277     C      0.770900000000     0.248300000000     0.000000000000     0          
O280     O      0.880350000000     0.936300000000     0.500000000000     0          
C281     C      0.871400000000     0.816200000000     0.500000000000     0          
H282     H      0.901600000000     0.808100000000     0.500000000000     0          
C283     C      0.839600000000     0.783300000000     0.500000000000     0          
C284     C      0.770900000000     0.748300000000     0.500000000000     0          
O287     O      0.380350000000     0.436300000000     0.500000000000     0          
C288     C      0.371400000000     0.316200000000     0.500000000000     0          
H289     H      0.401600000000     0.308100000000     0.500000000000     0          
C290     C      0.339600000000     0.283300000000     0.500000000000     0          
C291     C      0.270900000000     0.248300000000     0.500000000000     0          
H292     H      0.288100000000     0.221300000000     0.500000000000     0          
O294     O      0.380350000000     0.936300000000     0.000000000000     0          
C295     C      0.371400000000     0.816200000000     0.000000000000     0          
H296     H      0.401600000000     0.808100000000     0.000000000000     0          
C297     C      0.339600000000     0.783300000000     0.000000000000     0          
C298     C      0.270900000000     0.748300000000     0.000000000000     0          
H299     H      0.288100000000     0.721300000000     0.000000000000     0          
O301     O      0.119650000000     0.563700000000     0.000000000000     0          
C302     C      0.128600000000     0.683800000000     0.000000000000     0          
H303     H      0.098400000000     0.691900000000     0.000000000000     0          
C304     C      0.160400000000     0.716700000000     0.000000000000     0          
C305     C      0.229100000000     0.751700000000     0.000000000000     0          
H306     H      0.211900000000     0.778700000000     0.000000000000     0          
O308     O      0.119650000000     0.063700000000     0.500000000000     0          
C309     C      0.128600000000     0.183800000000     0.500000000000     0          
H310     H      0.098400000000     0.191900000000     0.500000000000     0          
C311     C      0.160400000000     0.216700000000     0.500000000000     0          
C312     C      0.229100000000     0.251700000000     0.500000000000     0          
O315     O      0.619650000000     0.563700000000     0.500000000000     0          
C316     C      0.628600000000     0.683800000000     0.500000000000     0          
H317     H      0.598400000000     0.691900000000     0.500000000000     0          
C318     C      0.660400000000     0.716700000000     0.500000000000     0          
C319     C      0.729100000000     0.751700000000     0.500000000000     0          
H320     H      0.711900000000     0.778700000000     0.500000000000     0          
O322     O      0.619650000000     0.063700000000     0.000000000000     0          
C323     C      0.628600000000     0.183800000000     0.000000000000     0          
H324     H      0.598400000000     0.191900000000     0.000000000000     0          
C325     C      0.660400000000     0.216700000000     0.000000000000     0          
C326     C      0.729100000000     0.251700000000     0.000000000000     0          
H327     H      0.711900000000     0.278700000000     0.000000000000     0          
O329     O      0.000000000000     0.119650000000     0.436300000000     0          
C330     C      0.000000000000     0.128600000000     0.316200000000     0          
H331     H      0.000000000000     0.098400000000     0.308100000000     0          
C332     C      0.000000000000     0.160400000000     0.283300000000     0          
N335     N      0.000000000000     0.144100000000     0.236700000000     0          
O336     O      0.000000000000     0.619650000000     0.936300000000     0          
C337     C      0.000000000000     0.628600000000     0.816200000000     0          
H338     H      0.000000000000     0.598400000000     0.808100000000     0          
C339     C      0.000000000000     0.660400000000     0.783300000000     0          
C340     C      0.000000000000     0.729100000000     0.748300000000     0          
N342     N      0.000000000000     0.644100000000     0.736700000000     0          
O343     O      0.500000000000     0.119650000000     0.936300000000     0          
C344     C      0.500000000000     0.128600000000     0.816200000000     0          
H345     H      0.500000000000     0.098400000000     0.808100000000     0          
C346     C      0.500000000000     0.160400000000     0.783300000000     0          
N349     N      0.500000000000     0.144100000000     0.736700000000     0          
O350     O      0.500000000000     0.619650000000     0.436300000000     0          
C351     C      0.500000000000     0.628600000000     0.316200000000     0          
H352     H      0.500000000000     0.598400000000     0.308100000000     0          
C353     C      0.500000000000     0.660400000000     0.283300000000     0          
H355     H      0.500000000000     0.711900000000     0.221300000000     0          
N356     N      0.500000000000     0.644100000000     0.236700000000     0          
O357     O      0.000000000000     0.880350000000     0.563700000000     0          
C358     C      0.000000000000     0.871400000000     0.683800000000     0          
H359     H      0.000000000000     0.901600000000     0.691900000000     0          
C360     C      0.000000000000     0.839600000000     0.716700000000     0          
C361     C      0.000000000000     0.770900000000     0.751700000000     0          
N363     N      0.000000000000     0.855900000000     0.763300000000     0          
O364     O      0.000000000000     0.380350000000     0.063700000000     0          
C365     C      0.000000000000     0.371400000000     0.183800000000     0          
H366     H      0.000000000000     0.401600000000     0.191900000000     0          
C367     C      0.000000000000     0.339600000000     0.216700000000     0          
H369     H      0.000000000000     0.288100000000     0.278700000000     0          
N370     N      0.000000000000     0.355900000000     0.263300000000     0          
O371     O      0.500000000000     0.880350000000     0.063700000000     0          
C372     C      0.500000000000     0.871400000000     0.183800000000     0          
H373     H      0.500000000000     0.901600000000     0.191900000000     0          
C374     C      0.500000000000     0.839600000000     0.216700000000     0          
N377     N      0.500000000000     0.855900000000     0.263300000000     0          
O378     O      0.500000000000     0.380350000000     0.563700000000     0          
C379     C      0.500000000000     0.371400000000     0.683800000000     0          
H380     H      0.500000000000     0.401600000000     0.691900000000     0          
C381     C      0.500000000000     0.339600000000     0.716700000000     0          
H383     H      0.500000000000     0.288100000000     0.778700000000     0          
N384     N      0.500000000000     0.355900000000     0.763300000000     0          
O385     O      0.000000000000     0.880350000000     0.436300000000     0          
C386     C      0.000000000000     0.871400000000     0.316200000000     0          
H387     H      0.000000000000     0.901600000000     0.308100000000     0          
C388     C      0.000000000000     0.839600000000     0.283300000000     0          
H390     H      0.000000000000     0.788100000000     0.221300000000     0          
O392     O      0.000000000000     0.380350000000     0.936300000000     0          
C393     C      0.000000000000     0.371400000000     0.816200000000     0          
H394     H      0.000000000000     0.401600000000     0.808100000000     0          
C395     C      0.000000000000     0.339600000000     0.783300000000     0          
C396     C      0.000000000000     0.270900000000     0.748300000000     0          
N398     N      0.000000000000     0.355900000000     0.736700000000     0          
H404     H      0.500000000000     0.788100000000     0.721300000000     0          
O406     O      0.500000000000     0.380350000000     0.436300000000     0          
C407     C      0.500000000000     0.371400000000     0.316200000000     0          
H408     H      0.500000000000     0.401600000000     0.308100000000     0          
C409     C      0.500000000000     0.339600000000     0.283300000000     0          
H411     H      0.500000000000     0.288100000000     0.221300000000     0          
O413     O      0.000000000000     0.119650000000     0.563700000000     0          
C414     C      0.000000000000     0.128600000000     0.683800000000     0          
H415     H      0.000000000000     0.098400000000     0.691900000000     0          
C416     C      0.000000000000     0.160400000000     0.716700000000     0          
C417     C      0.000000000000     0.229100000000     0.751700000000     0          
N419     N      0.000000000000     0.144100000000     0.763300000000     0          
O420     O      0.000000000000     0.619650000000     0.063700000000     0          
C421     C      0.000000000000     0.628600000000     0.183800000000     0          
H422     H      0.000000000000     0.598400000000     0.191900000000     0          
C423     C      0.000000000000     0.660400000000     0.216700000000     0          
O427     O      0.500000000000     0.119650000000     0.063700000000     0          
C428     C      0.500000000000     0.128600000000     0.183800000000     0          
H429     H      0.500000000000     0.098400000000     0.191900000000     0          
C430     C      0.500000000000     0.160400000000     0.216700000000     0          
O434     O      0.500000000000     0.619650000000     0.563700000000     0          
C435     C      0.500000000000     0.628600000000     0.683800000000     0          
H436     H      0.500000000000     0.598400000000     0.691900000000     0          
C437     C      0.500000000000     0.660400000000     0.716700000000     0          
O441     O      0.436300000000     0.000000000000     0.119650000000     0          
C442     C      0.316200000000     0.000000000000     0.128600000000     0          
H443     H      0.308100000000     0.000000000000     0.098400000000     0          
C444     C      0.283300000000     0.000000000000     0.160400000000     0          
H446     H      0.221300000000     0.000000000000     0.211900000000     0          
N447     N      0.236700000000     0.000000000000     0.144100000000     0          
O448     O      0.436300000000     0.500000000000     0.619650000000     0          
C449     C      0.316200000000     0.500000000000     0.628600000000     0          
H450     H      0.308100000000     0.500000000000     0.598400000000     0          
C451     C      0.283300000000     0.500000000000     0.660400000000     0          
H453     H      0.221300000000     0.500000000000     0.711900000000     0          
N454     N      0.236700000000     0.500000000000     0.644100000000     0          
O455     O      0.936300000000     0.000000000000     0.619650000000     0          
C456     C      0.816200000000     0.000000000000     0.628600000000     0          
H457     H      0.808100000000     0.000000000000     0.598400000000     0          
C458     C      0.783300000000     0.000000000000     0.660400000000     0          
H460     H      0.721300000000     0.000000000000     0.711900000000     0          
N461     N      0.736700000000     0.000000000000     0.644100000000     0          
O462     O      0.936300000000     0.500000000000     0.119650000000     0          
C463     C      0.816200000000     0.500000000000     0.128600000000     0          
H464     H      0.808100000000     0.500000000000     0.098400000000     0          
C465     C      0.783300000000     0.500000000000     0.160400000000     0          
N468     N      0.736700000000     0.500000000000     0.144100000000     0          
O469     O      0.563700000000     0.000000000000     0.880350000000     0          
C470     C      0.683800000000     0.000000000000     0.871400000000     0          
H471     H      0.691900000000     0.000000000000     0.901600000000     0          
C472     C      0.716700000000     0.000000000000     0.839600000000     0          
H474     H      0.778700000000     0.000000000000     0.788100000000     0          
N475     N      0.763300000000     0.000000000000     0.855900000000     0          
O476     O      0.563700000000     0.500000000000     0.380350000000     0          
C477     C      0.683800000000     0.500000000000     0.371400000000     0          
H478     H      0.691900000000     0.500000000000     0.401600000000     0          
C479     C      0.716700000000     0.500000000000     0.339600000000     0          
H481     H      0.778700000000     0.500000000000     0.288100000000     0          
N482     N      0.763300000000     0.500000000000     0.355900000000     0          
O483     O      0.063700000000     0.000000000000     0.380350000000     0          
C484     C      0.183800000000     0.000000000000     0.371400000000     0          
H485     H      0.191900000000     0.000000000000     0.401600000000     0          
C486     C      0.216700000000     0.000000000000     0.339600000000     0          
N489     N      0.263300000000     0.000000000000     0.355900000000     0          
O490     O      0.063700000000     0.500000000000     0.880350000000     0          
C491     C      0.183800000000     0.500000000000     0.871400000000     0          
H492     H      0.191900000000     0.500000000000     0.901600000000     0          
C493     C      0.216700000000     0.500000000000     0.839600000000     0          
N496     N      0.263300000000     0.500000000000     0.855900000000     0          
O497     O      0.436300000000     0.000000000000     0.880350000000     0          
C498     C      0.316200000000     0.000000000000     0.871400000000     0          
H499     H      0.308100000000     0.000000000000     0.901600000000     0          
C500     C      0.283300000000     0.000000000000     0.839600000000     0          
O504     O      0.436300000000     0.500000000000     0.380350000000     0          
C505     C      0.316200000000     0.500000000000     0.371400000000     0          
H506     H      0.308100000000     0.500000000000     0.401600000000     0          
C507     C      0.283300000000     0.500000000000     0.339600000000     0          
O511     O      0.936300000000     0.000000000000     0.380350000000     0          
C512     C      0.816200000000     0.000000000000     0.371400000000     0          
H513     H      0.808100000000     0.000000000000     0.401600000000     0          
C514     C      0.783300000000     0.000000000000     0.339600000000     0          
O518     O      0.936300000000     0.500000000000     0.880350000000     0          
C519     C      0.816200000000     0.500000000000     0.871400000000     0          
H520     H      0.808100000000     0.500000000000     0.901600000000     0          
C521     C      0.783300000000     0.500000000000     0.839600000000     0          
O525     O      0.563700000000     0.000000000000     0.119650000000     0          
C526     C      0.683800000000     0.000000000000     0.128600000000     0          
H527     H      0.691900000000     0.000000000000     0.098400000000     0          
C528     C      0.716700000000     0.000000000000     0.160400000000     0          
O532     O      0.563700000000     0.500000000000     0.619650000000     0          
C533     C      0.683800000000     0.500000000000     0.628600000000     0          
H534     H      0.691900000000     0.500000000000     0.598400000000     0          
C535     C      0.716700000000     0.500000000000     0.660400000000     0          
O539     O      0.063700000000     0.000000000000     0.619650000000     0          
C540     C      0.183800000000     0.000000000000     0.628600000000     0          
H541     H      0.191900000000     0.000000000000     0.598400000000     0          
C542     C      0.216700000000     0.000000000000     0.660400000000     0          
H544     H      0.278700000000     0.000000000000     0.711900000000     0          
O546     O      0.063700000000     0.500000000000     0.119650000000     0          
C547     C      0.183800000000     0.500000000000     0.128600000000     0          
H548     H      0.191900000000     0.500000000000     0.098400000000     0          
C549     C      0.216700000000     0.500000000000     0.160400000000     0          
H551     H      0.278700000000     0.500000000000     0.211900000000     0          
O553     O      0.436300000000     0.119650000000     0.000000000000     0          
C554     C      0.316200000000     0.128600000000     0.000000000000     0          
H555     H      0.308100000000     0.098400000000     0.000000000000     0          
C556     C      0.283300000000     0.160400000000     0.000000000000     0          
O560     O      0.436300000000     0.619650000000     0.500000000000     0          
C561     C      0.316200000000     0.628600000000     0.500000000000     0          
H562     H      0.308100000000     0.598400000000     0.500000000000     0          
C563     C      0.283300000000     0.660400000000     0.500000000000     0          
O567     O      0.936300000000     0.119650000000     0.500000000000     0          
C568     C      0.816200000000     0.128600000000     0.500000000000     0          
H569     H      0.808100000000     0.098400000000     0.500000000000     0          
C570     C      0.783300000000     0.160400000000     0.500000000000     0          
O574     O      0.936300000000     0.619650000000     0.000000000000     0          
C575     C      0.816200000000     0.628600000000     0.000000000000     0          
H576     H      0.808100000000     0.598400000000     0.000000000000     0          
C577     C      0.783300000000     0.660400000000     0.000000000000     0          
O581     O      0.563700000000     0.880350000000     0.000000000000     0          
C582     C      0.683800000000     0.871400000000     0.000000000000     0          
H583     H      0.691900000000     0.901600000000     0.000000000000     0          
C584     C      0.716700000000     0.839600000000     0.000000000000     0          
O588     O      0.563700000000     0.380350000000     0.500000000000     0          
C589     C      0.683800000000     0.371400000000     0.500000000000     0          
H590     H      0.691900000000     0.401600000000     0.500000000000     0          
C591     C      0.716700000000     0.339600000000     0.500000000000     0          
O595     O      0.063700000000     0.880350000000     0.500000000000     0          
C596     C      0.183800000000     0.871400000000     0.500000000000     0          
H597     H      0.191900000000     0.901600000000     0.500000000000     0          
C598     C      0.216700000000     0.839600000000     0.500000000000     0          
H600     H      0.278700000000     0.788100000000     0.500000000000     0          
O602     O      0.063700000000     0.380350000000     0.000000000000     0          
C603     C      0.183800000000     0.371400000000     0.000000000000     0          
H604     H      0.191900000000     0.401600000000     0.000000000000     0          
C605     C      0.216700000000     0.339600000000     0.000000000000     0          
H607     H      0.278700000000     0.288100000000     0.000000000000     0          
O609     O      0.436300000000     0.880350000000     0.000000000000     0          
C610     C      0.316200000000     0.871400000000     0.000000000000     0          
H611     H      0.308100000000     0.901600000000     0.000000000000     0          
C612     C      0.283300000000     0.839600000000     0.000000000000     0          
N615     N      0.236700000000     0.855900000000     0.000000000000     0          
O616     O      0.436300000000     0.380350000000     0.500000000000     0          
C617     C      0.316200000000     0.371400000000     0.500000000000     0          
H618     H      0.308100000000     0.401600000000     0.500000000000     0          
C619     C      0.283300000000     0.339600000000     0.500000000000     0          
H621     H      0.221300000000     0.288100000000     0.500000000000     0          
N622     N      0.236700000000     0.355900000000     0.500000000000     0          
O623     O      0.936300000000     0.880350000000     0.500000000000     0          
C624     C      0.816200000000     0.871400000000     0.500000000000     0          
H625     H      0.808100000000     0.901600000000     0.500000000000     0          
C626     C      0.783300000000     0.839600000000     0.500000000000     0          
N629     N      0.736700000000     0.855900000000     0.500000000000     0          
O630     O      0.936300000000     0.380350000000     0.000000000000     0          
C631     C      0.816200000000     0.371400000000     0.000000000000     0          
H632     H      0.808100000000     0.401600000000     0.000000000000     0          
C633     C      0.783300000000     0.339600000000     0.000000000000     0          
N636     N      0.736700000000     0.355900000000     0.000000000000     0          
O637     O      0.563700000000     0.119650000000     0.000000000000     0          
C638     C      0.683800000000     0.128600000000     0.000000000000     0          
H639     H      0.691900000000     0.098400000000     0.000000000000     0          
C640     C      0.716700000000     0.160400000000     0.000000000000     0          
H642     H      0.778700000000     0.211900000000     0.000000000000     0          
N643     N      0.763300000000     0.144100000000     0.000000000000     0          
O644     O      0.563700000000     0.619650000000     0.500000000000     0          
C645     C      0.683800000000     0.628600000000     0.500000000000     0          
H646     H      0.691900000000     0.598400000000     0.500000000000     0          
C647     C      0.716700000000     0.660400000000     0.500000000000     0          
H649     H      0.778700000000     0.711900000000     0.500000000000     0          
N650     N      0.763300000000     0.644100000000     0.500000000000     0          
O651     O      0.063700000000     0.119650000000     0.500000000000     0          
C652     C      0.183800000000     0.128600000000     0.500000000000     0          
H653     H      0.191900000000     0.098400000000     0.500000000000     0          
C654     C      0.216700000000     0.160400000000     0.500000000000     0          
N657     N      0.263300000000     0.144100000000     0.500000000000     0          
O658     O      0.063700000000     0.619650000000     0.000000000000     0          
C659     C      0.183800000000     0.628600000000     0.000000000000     0          
H660     H      0.191900000000     0.598400000000     0.000000000000     0          
C661     C      0.216700000000     0.660400000000     0.000000000000     0          
N664     N      0.263300000000     0.644100000000     0.000000000000     0          
O665     O      0.119650000000     0.000000000000     0.563700000000     0          
C666     C      0.128600000000     0.000000000000     0.683800000000     0          
H667     H      0.098400000000     0.000000000000     0.691900000000     0          
C668     C      0.160400000000     0.000000000000     0.716700000000     0          
C669     C      0.229100000000     0.000000000000     0.751700000000     0          
H670     H      0.211900000000     0.000000000000     0.778700000000     0          
N671     N      0.144100000000     0.000000000000     0.763300000000     0          
O672     O      0.119650000000     0.500000000000     0.063700000000     0          
C673     C      0.128600000000     0.500000000000     0.183800000000     0          
H674     H      0.098400000000     0.500000000000     0.191900000000     0          
C675     C      0.160400000000     0.500000000000     0.216700000000     0          
C676     C      0.229100000000     0.500000000000     0.251700000000     0          
H677     H      0.211900000000     0.500000000000     0.278700000000     0          
N678     N      0.144100000000     0.500000000000     0.263300000000     0          
O679     O      0.619650000000     0.000000000000     0.063700000000     0          
C680     C      0.628600000000     0.000000000000     0.183800000000     0          
H681     H      0.598400000000     0.000000000000     0.191900000000     0          
C682     C      0.660400000000     0.000000000000     0.216700000000     0          
C683     C      0.729100000000     0.000000000000     0.251700000000     0          
H684     H      0.711900000000     0.000000000000     0.278700000000     0          
N685     N      0.644100000000     0.000000000000     0.263300000000     0          
O686     O      0.619650000000     0.500000000000     0.563700000000     0          
C687     C      0.628600000000     0.500000000000     0.683800000000     0          
H688     H      0.598400000000     0.500000000000     0.691900000000     0          
C689     C      0.660400000000     0.500000000000     0.716700000000     0          
C690     C      0.729100000000     0.500000000000     0.751700000000     0          
H691     H      0.711900000000     0.500000000000     0.778700000000     0          
N692     N      0.644100000000     0.500000000000     0.763300000000     0          
O693     O      0.880350000000     0.000000000000     0.436300000000     0          
C694     C      0.871400000000     0.000000000000     0.316200000000     0          
H695     H      0.901600000000     0.000000000000     0.308100000000     0          
C696     C      0.839600000000     0.000000000000     0.283300000000     0          
C697     C      0.770900000000     0.000000000000     0.248300000000     0          
H698     H      0.788100000000     0.000000000000     0.221300000000     0          
N699     N      0.855900000000     0.000000000000     0.236700000000     0          
O700     O      0.880350000000     0.500000000000     0.936300000000     0          
C701     C      0.871400000000     0.500000000000     0.816200000000     0          
H702     H      0.901600000000     0.500000000000     0.808100000000     0          
C703     C      0.839600000000     0.500000000000     0.783300000000     0          
C704     C      0.770900000000     0.500000000000     0.748300000000     0          
H705     H      0.788100000000     0.500000000000     0.721300000000     0          
N706     N      0.855900000000     0.500000000000     0.736700000000     0          
O707     O      0.380350000000     0.000000000000     0.936300000000     0          
C708     C      0.371400000000     0.000000000000     0.816200000000     0          
H709     H      0.401600000000     0.000000000000     0.808100000000     0          
C710     C      0.339600000000     0.000000000000     0.783300000000     0          
C711     C      0.270900000000     0.000000000000     0.748300000000     0          
N713     N      0.355900000000     0.000000000000     0.736700000000     0          
O714     O      0.380350000000     0.500000000000     0.436300000000     0          
C715     C      0.371400000000     0.500000000000     0.316200000000     0          
H716     H      0.401600000000     0.500000000000     0.308100000000     0          
C717     C      0.339600000000     0.500000000000     0.283300000000     0          
C718     C      0.270900000000     0.500000000000     0.248300000000     0          
N720     N      0.355900000000     0.500000000000     0.236700000000     0          
O721     O      0.880350000000     0.000000000000     0.563700000000     0          
C722     C      0.871400000000     0.000000000000     0.683800000000     0          
H723     H      0.901600000000     0.000000000000     0.691900000000     0          
C724     C      0.839600000000     0.000000000000     0.716700000000     0          
C725     C      0.770900000000     0.000000000000     0.751700000000     0          
O728     O      0.880350000000     0.500000000000     0.063700000000     0          
C729     C      0.871400000000     0.500000000000     0.183800000000     0          
H730     H      0.901600000000     0.500000000000     0.191900000000     0          
C731     C      0.839600000000     0.500000000000     0.216700000000     0          
C732     C      0.770900000000     0.500000000000     0.251700000000     0          
O735     O      0.380350000000     0.000000000000     0.063700000000     0          
C736     C      0.371400000000     0.000000000000     0.183800000000     0          
H737     H      0.401600000000     0.000000000000     0.191900000000     0          
C738     C      0.339600000000     0.000000000000     0.216700000000     0          
C739     C      0.270900000000     0.000000000000     0.251700000000     0          
H740     H      0.288100000000     0.000000000000     0.278700000000     0          
O742     O      0.380350000000     0.500000000000     0.563700000000     0          
C743     C      0.371400000000     0.500000000000     0.683800000000     0          
H744     H      0.401600000000     0.500000000000     0.691900000000     0          
C745     C      0.339600000000     0.500000000000     0.716700000000     0          
C746     C      0.270900000000     0.500000000000     0.751700000000     0          
H747     H      0.288100000000     0.500000000000     0.778700000000     0          
O749     O      0.119650000000     0.000000000000     0.436300000000     0          
C750     C      0.128600000000     0.000000000000     0.316200000000     0          
H751     H      0.098400000000     0.000000000000     0.308100000000     0          
C752     C      0.160400000000     0.000000000000     0.283300000000     0          
C753     C      0.229100000000     0.000000000000     0.248300000000     0          
O756     O      0.119650000000     0.500000000000     0.936300000000     0          
C757     C      0.128600000000     0.500000000000     0.816200000000     0          
H758     H      0.098400000000     0.500000000000     0.808100000000     0          
C759     C      0.160400000000     0.500000000000     0.783300000000     0          
C760     C      0.229100000000     0.500000000000     0.748300000000     0          
O763     O      0.619650000000     0.000000000000     0.936300000000     0          
C764     C      0.628600000000     0.000000000000     0.816200000000     0          
H765     H      0.598400000000     0.000000000000     0.808100000000     0          
C766     C      0.660400000000     0.000000000000     0.783300000000     0          
C767     C      0.729100000000     0.000000000000     0.748300000000     0          
O770     O      0.619650000000     0.500000000000     0.436300000000     0          
C771     C      0.628600000000     0.500000000000     0.316200000000     0          
H772     H      0.598400000000     0.500000000000     0.308100000000     0          
C773     C      0.660400000000     0.500000000000     0.283300000000     0          
C774     C      0.729100000000     0.500000000000     0.248300000000     0          
H775     H      0.711900000000     0.500000000000     0.221300000000     0          
O777     O      0.000000000000     0.436300000000     0.880350000000     0          
C778     C      0.000000000000     0.316200000000     0.871400000000     0          
H779     H      0.000000000000     0.308100000000     0.901600000000     0          
C780     C      0.000000000000     0.283300000000     0.839600000000     0          
H782     H      0.000000000000     0.221300000000     0.788100000000     0          
O784     O      0.000000000000     0.936300000000     0.380350000000     0          
C785     C      0.000000000000     0.816200000000     0.371400000000     0          
H786     H      0.000000000000     0.808100000000     0.401600000000     0          
C787     C      0.000000000000     0.783300000000     0.339600000000     0          
C788     C      0.000000000000     0.748300000000     0.270900000000     0          
H789     H      0.000000000000     0.721300000000     0.288100000000     0          
N790     N      0.000000000000     0.736700000000     0.355900000000     0          
O791     O      0.500000000000     0.436300000000     0.380350000000     0          
C792     C      0.500000000000     0.316200000000     0.371400000000     0          
H793     H      0.500000000000     0.308100000000     0.401600000000     0          
C794     C      0.500000000000     0.283300000000     0.339600000000     0          
C795     C      0.500000000000     0.248300000000     0.270900000000     0          
H796     H      0.500000000000     0.221300000000     0.288100000000     0          
N797     N      0.500000000000     0.236700000000     0.355900000000     0          
O805     O      0.000000000000     0.563700000000     0.119650000000     0          
C806     C      0.000000000000     0.683800000000     0.128600000000     0          
H807     H      0.000000000000     0.691900000000     0.098400000000     0          
C808     C      0.000000000000     0.716700000000     0.160400000000     0          
C809     C      0.000000000000     0.751700000000     0.229100000000     0          
N811     N      0.000000000000     0.763300000000     0.144100000000     0          
O812     O      0.000000000000     0.063700000000     0.619650000000     0          
C813     C      0.000000000000     0.183800000000     0.628600000000     0          
H814     H      0.000000000000     0.191900000000     0.598400000000     0          
C815     C      0.000000000000     0.216700000000     0.660400000000     0          
H817     H      0.000000000000     0.278700000000     0.711900000000     0          
N818     N      0.000000000000     0.263300000000     0.644100000000     0          
O819     O      0.500000000000     0.563700000000     0.619650000000     0          
C820     C      0.500000000000     0.683800000000     0.628600000000     0          
H821     H      0.500000000000     0.691900000000     0.598400000000     0          
C822     C      0.500000000000     0.716700000000     0.660400000000     0          
C823     C      0.500000000000     0.751700000000     0.729100000000     0          
N825     N      0.500000000000     0.763300000000     0.644100000000     0          
O826     O      0.500000000000     0.063700000000     0.119650000000     0          
C827     C      0.500000000000     0.183800000000     0.128600000000     0          
H828     H      0.500000000000     0.191900000000     0.098400000000     0          
C829     C      0.500000000000     0.216700000000     0.160400000000     0          
C830     C      0.500000000000     0.251700000000     0.229100000000     0          
N832     N      0.500000000000     0.263300000000     0.144100000000     0          
O833     O      0.000000000000     0.436300000000     0.119650000000     0          
C834     C      0.000000000000     0.316200000000     0.128600000000     0          
H835     H      0.000000000000     0.308100000000     0.098400000000     0          
C836     C      0.000000000000     0.283300000000     0.160400000000     0          
C837     C      0.000000000000     0.248300000000     0.229100000000     0          
H838     H      0.000000000000     0.221300000000     0.211900000000     0          
O840     O      0.000000000000     0.936300000000     0.619650000000     0          
C841     C      0.000000000000     0.816200000000     0.628600000000     0          
H842     H      0.000000000000     0.808100000000     0.598400000000     0          
C843     C      0.000000000000     0.783300000000     0.660400000000     0          
H845     H      0.000000000000     0.721300000000     0.711900000000     0          
O847     O      0.500000000000     0.436300000000     0.619650000000     0          
C848     C      0.500000000000     0.316200000000     0.628600000000     0          
H849     H      0.500000000000     0.308100000000     0.598400000000     0          
C850     C      0.500000000000     0.283300000000     0.660400000000     0          
C851     C      0.500000000000     0.248300000000     0.729100000000     0          
H852     H      0.500000000000     0.221300000000     0.711900000000     0          
O854     O      0.500000000000     0.936300000000     0.119650000000     0          
C855     C      0.500000000000     0.816200000000     0.128600000000     0          
H856     H      0.500000000000     0.808100000000     0.098400000000     0          
C857     C      0.500000000000     0.783300000000     0.160400000000     0          
C858     C      0.500000000000     0.748300000000     0.229100000000     0          
O861     O      0.000000000000     0.563700000000     0.880350000000     0          
C862     C      0.000000000000     0.683800000000     0.871400000000     0          
H863     H      0.000000000000     0.691900000000     0.901600000000     0          
C864     C      0.000000000000     0.716700000000     0.839600000000     0          
H866     H      0.000000000000     0.778700000000     0.788100000000     0          
O868     O      0.000000000000     0.063700000000     0.380350000000     0          
C869     C      0.000000000000     0.183800000000     0.371400000000     0          
H870     H      0.000000000000     0.191900000000     0.401600000000     0          
C871     C      0.000000000000     0.216700000000     0.339600000000     0          
C872     C      0.000000000000     0.251700000000     0.270900000000     0          
O875     O      0.500000000000     0.563700000000     0.380350000000     0          
C876     C      0.500000000000     0.683800000000     0.371400000000     0          
H877     H      0.500000000000     0.691900000000     0.401600000000     0          
C878     C      0.500000000000     0.716700000000     0.339600000000     0          
C879     C      0.500000000000     0.751700000000     0.270900000000     0          
H880     H      0.500000000000     0.778700000000     0.288100000000     0          
O882     O      0.500000000000     0.063700000000     0.880350000000     0          
C883     C      0.500000000000     0.183800000000     0.871400000000     0          
H884     H      0.500000000000     0.191900000000     0.901600000000     0          
C885     C      0.500000000000     0.216700000000     0.839600000000     0          
C886     C      0.500000000000     0.251700000000     0.770900000000     0          
O889     O      0.040820000000     0.459180000000     0.040820000000     0          
O890     O      0.959180000000     0.540820000000     0.040820000000     0          
O891     O      0.459180000000     0.040820000000     0.040820000000     0          
O893     O      0.459180000000     0.459180000000     0.459180000000     0          
O894     O      0.040820000000     0.540820000000     0.959180000000     0          
O895     O      0.040820000000     0.040820000000     0.459180000000     0          
O896     O      0.040820000000     0.959180000000     0.540820000000     0          
O898     O      0.959180000000     0.040820000000     0.540820000000     0          
O899     O      0.459180000000     0.540820000000     0.540820000000     0          
O900     O      0.540820000000     0.040820000000     0.959180000000     0          
O901     O      0.540820000000     0.540820000000     0.459180000000     0          
O903     O      0.540820000000     0.959180000000     0.040820000000     0          
O904     O      0.540820000000     0.459180000000     0.540820000000     0          
O905     O      0.459180000000     0.040820000000     0.959180000000     0          
O906     O      0.459180000000     0.540820000000     0.459180000000     0          
O908     O      0.540820000000     0.459180000000     0.459180000000     0          
O909     O      0.040820000000     0.959180000000     0.459180000000     0          
O910     O      0.040820000000     0.459180000000     0.959180000000     0          
O911     O      0.459180000000     0.959180000000     0.040820000000     0          
O912     O      0.459180000000     0.459180000000     0.540820000000     0          
O913     O      0.540820000000     0.040820000000     0.040820000000     0          
O914     O      0.540820000000     0.540820000000     0.540820000000     0          
O915     O      0.040820000000     0.040820000000     0.540820000000     0          
O916     O      0.959180000000     0.040820000000     0.459180000000     0          
O918     O      0.959180000000     0.459180000000     0.040820000000     0          
O919     O      0.040820000000     0.540820000000     0.040820000000     0          
C921     C      0.105150000000     0.394850000000     0.000000000000     0          
C922     C      0.139700000000     0.360300000000     0.000000000000     0          
C923     C      0.204900000000     0.295100000000     0.000000000000     0          
C924     C      0.105150000000     0.894850000000     0.500000000000     0          
C925     C      0.139700000000     0.860300000000     0.500000000000     0          
C926     C      0.204900000000     0.795100000000     0.500000000000     0          
C927     C      0.894850000000     0.605150000000     0.000000000000     0          
C928     C      0.860300000000     0.639700000000     0.000000000000     0          
C929     C      0.795100000000     0.704900000000     0.000000000000     0          
C930     C      0.894850000000     0.105150000000     0.500000000000     0          
C931     C      0.860300000000     0.139700000000     0.500000000000     0          
C932     C      0.795100000000     0.204900000000     0.500000000000     0          
C933     C      0.394850000000     0.105150000000     0.000000000000     0          
C934     C      0.360300000000     0.139700000000     0.000000000000     0          
C935     C      0.295100000000     0.204900000000     0.000000000000     0          
C936     C      0.894850000000     0.394850000000     0.000000000000     0          
C937     C      0.860300000000     0.360300000000     0.000000000000     0          
C938     C      0.795100000000     0.295100000000     0.000000000000     0          
C939     C      0.894850000000     0.894850000000     0.500000000000     0          
C940     C      0.860300000000     0.860300000000     0.500000000000     0          
C941     C      0.795100000000     0.795100000000     0.500000000000     0          
C942     C      0.394850000000     0.394850000000     0.500000000000     0          
C943     C      0.360300000000     0.360300000000     0.500000000000     0          
C944     C      0.295100000000     0.295100000000     0.500000000000     0          
C945     C      0.105150000000     0.605150000000     0.000000000000     0          
C946     C      0.139700000000     0.639700000000     0.000000000000     0          
C947     C      0.204900000000     0.704900000000     0.000000000000     0          
C948     C      0.105150000000     0.105150000000     0.500000000000     0          
C949     C      0.139700000000     0.139700000000     0.500000000000     0          
C950     C      0.204900000000     0.204900000000     0.500000000000     0          
C951     C      0.000000000000     0.105150000000     0.394850000000     0          
C952     C      0.000000000000     0.139700000000     0.360300000000     0          
C953     C      0.000000000000     0.204900000000     0.295100000000     0          
C954     C      0.500000000000     0.105150000000     0.894850000000     0          
C955     C      0.500000000000     0.139700000000     0.860300000000     0          
C956     C      0.500000000000     0.204900000000     0.795100000000     0          
C957     C      0.000000000000     0.894850000000     0.605150000000     0          
C958     C      0.000000000000     0.860300000000     0.639700000000     0          
C959     C      0.000000000000     0.795100000000     0.704900000000     0          
C960     C      0.000000000000     0.394850000000     0.105150000000     0          
C961     C      0.000000000000     0.360300000000     0.139700000000     0          
C962     C      0.000000000000     0.295100000000     0.204900000000     0          
C963     C      0.500000000000     0.894850000000     0.105150000000     0          
C964     C      0.500000000000     0.860300000000     0.139700000000     0          
C965     C      0.500000000000     0.795100000000     0.204900000000     0          
C966     C      0.000000000000     0.894850000000     0.394850000000     0          
C967     C      0.000000000000     0.860300000000     0.360300000000     0          
C968     C      0.000000000000     0.795100000000     0.295100000000     0          
C972     C      0.500000000000     0.394850000000     0.394850000000     0          
C973     C      0.500000000000     0.360300000000     0.360300000000     0          
C974     C      0.500000000000     0.295100000000     0.295100000000     0          
C975     C      0.000000000000     0.105150000000     0.605150000000     0          
C976     C      0.000000000000     0.139700000000     0.639700000000     0          
C977     C      0.000000000000     0.204900000000     0.704900000000     0          
C978     C      0.500000000000     0.105150000000     0.105150000000     0          
C979     C      0.500000000000     0.139700000000     0.139700000000     0          
C980     C      0.500000000000     0.204900000000     0.204900000000     0          
C981     C      0.394850000000     0.000000000000     0.105150000000     0          
C982     C      0.360300000000     0.000000000000     0.139700000000     0          
C983     C      0.295100000000     0.000000000000     0.204900000000     0          
C984     C      0.394850000000     0.500000000000     0.605150000000     0          
C985     C      0.360300000000     0.500000000000     0.639700000000     0          
C986     C      0.295100000000     0.500000000000     0.704900000000     0          
C987     C      0.605150000000     0.000000000000     0.894850000000     0          
C988     C      0.639700000000     0.000000000000     0.860300000000     0          
C989     C      0.704900000000     0.000000000000     0.795100000000     0          
C990     C      0.605150000000     0.500000000000     0.394850000000     0          
C991     C      0.639700000000     0.500000000000     0.360300000000     0          
C992     C      0.704900000000     0.500000000000     0.295100000000     0          
C993     C      0.105150000000     0.000000000000     0.394850000000     0          
C994     C      0.139700000000     0.000000000000     0.360300000000     0          
C995     C      0.204900000000     0.000000000000     0.295100000000     0          
C996     C      0.394850000000     0.000000000000     0.894850000000     0          
C997     C      0.360300000000     0.000000000000     0.860300000000     0          
C998     C      0.295100000000     0.000000000000     0.795100000000     0          
C999     C      0.394850000000     0.500000000000     0.394850000000     0          
C1000    C      0.360300000000     0.500000000000     0.360300000000     0          
C1001    C      0.295100000000     0.500000000000     0.295100000000     0          
C1002    C      0.605150000000     0.000000000000     0.105150000000     0          
C1003    C      0.639700000000     0.000000000000     0.139700000000     0          
C1004    C      0.704900000000     0.000000000000     0.204900000000     0          
C1005    C      0.605150000000     0.500000000000     0.605150000000     0          
C1006    C      0.639700000000     0.500000000000     0.639700000000     0          
C1007    C      0.704900000000     0.500000000000     0.704900000000     0          
C1008    C      0.105150000000     0.500000000000     0.105150000000     0          
C1009    C      0.139700000000     0.500000000000     0.139700000000     0          
C1010    C      0.204900000000     0.500000000000     0.204900000000     0          
C1011    C      0.394850000000     0.605150000000     0.500000000000     0          
C1012    C      0.360300000000     0.639700000000     0.500000000000     0          
C1013    C      0.295100000000     0.704900000000     0.500000000000     0          
C1014    C      0.605150000000     0.894850000000     0.000000000000     0          
C1015    C      0.639700000000     0.860300000000     0.000000000000     0          
C1016    C      0.704900000000     0.795100000000     0.000000000000     0          
C1017    C      0.605150000000     0.394850000000     0.500000000000     0          
C1018    C      0.639700000000     0.360300000000     0.500000000000     0          
C1019    C      0.704900000000     0.295100000000     0.500000000000     0          
C1020    C      0.394850000000     0.894850000000     0.000000000000     0          
C1021    C      0.360300000000     0.860300000000     0.000000000000     0          
C1022    C      0.295100000000     0.795100000000     0.000000000000     0          
C1023    C      0.605150000000     0.105150000000     0.000000000000     0          
C1024    C      0.639700000000     0.139700000000     0.000000000000     0          
C1025    C      0.704900000000     0.204900000000     0.000000000000     0          
C1026    C      0.605150000000     0.605150000000     0.500000000000     0          
C1027    C      0.639700000000     0.639700000000     0.500000000000     0          
C1028    C      0.704900000000     0.704900000000     0.500000000000     0          
C1029    C      0.105150000000     0.000000000000     0.605150000000     0          
C1030    C      0.139700000000     0.000000000000     0.639700000000     0          
C1031    C      0.204900000000     0.000000000000     0.704900000000     0          
C1032    C      0.894850000000     0.000000000000     0.394850000000     0          
C1033    C      0.860300000000     0.000000000000     0.360300000000     0          
C1034    C      0.795100000000     0.000000000000     0.295100000000     0          
C1035    C      0.894850000000     0.500000000000     0.894850000000     0          
C1036    C      0.860300000000     0.500000000000     0.860300000000     0          
C1037    C      0.795100000000     0.500000000000     0.795100000000     0          
C1038    C      0.894850000000     0.000000000000     0.605150000000     0          
C1039    C      0.860300000000     0.000000000000     0.639700000000     0          
C1040    C      0.795100000000     0.000000000000     0.704900000000     0          
C1041    C      0.894850000000     0.500000000000     0.105150000000     0          
C1042    C      0.860300000000     0.500000000000     0.139700000000     0          
C1043    C      0.795100000000     0.500000000000     0.204900000000     0          
C1044    C      0.105150000000     0.500000000000     0.894850000000     0          
C1045    C      0.139700000000     0.500000000000     0.860300000000     0          
C1046    C      0.204900000000     0.500000000000     0.795100000000     0          
C1047    C      0.000000000000     0.394850000000     0.894850000000     0          
C1048    C      0.000000000000     0.360300000000     0.860300000000     0          
C1049    C      0.000000000000     0.295100000000     0.795100000000     0          
C1050    C      0.000000000000     0.605150000000     0.105150000000     0          
C1051    C      0.000000000000     0.639700000000     0.139700000000     0          
C1052    C      0.000000000000     0.704900000000     0.204900000000     0          
C1053    C      0.500000000000     0.605150000000     0.605150000000     0          
C1054    C      0.500000000000     0.639700000000     0.639700000000     0          
C1055    C      0.500000000000     0.704900000000     0.704900000000     0          
C1056    C      0.500000000000     0.394850000000     0.605150000000     0          
C1057    C      0.500000000000     0.360300000000     0.639700000000     0          
C1058    C      0.500000000000     0.295100000000     0.704900000000     0          
C1059    C      0.000000000000     0.605150000000     0.894850000000     0          
C1060    C      0.000000000000     0.639700000000     0.860300000000     0          
C1061    C      0.000000000000     0.704900000000     0.795100000000     0          
C1062    C      0.500000000000     0.605150000000     0.394850000000     0          
C1063    C      0.500000000000     0.639700000000     0.360300000000     0          
C1064    C      0.500000000000     0.704900000000     0.295100000000     0          
O892     O      0.959180000000     0.459180000000     0.959180000000     0          
O897     O      0.959180000000     0.959180000000     0.459180000000     0          
O902     O      0.459180000000     0.959180000000     0.959180000000     0          
O907     O      0.540820000000     0.959180000000     0.959180000000     0          
O917     O      0.959180000000     0.959180000000     0.540820000000     0          
O920     O      0.959180000000     0.540820000000     0.959180000000     0          
O399     O      0.500000000000     0.880350000000     0.936300000000     0          
O798     O      0.500000000000     0.936300000000     0.880350000000     0          
H84      H      0.476900000000     0.723100000000     0.864100000000     0          
H184     H      0.523100000000     0.723100000000     0.864100000000     0          
C400     C      0.500000000000     0.871400000000     0.816200000000     0          
H401     H      0.500000000000     0.901600000000     0.808100000000     0          
C402     C      0.500000000000     0.839600000000     0.783300000000     0          
C799     C      0.500000000000     0.816200000000     0.871400000000     0          
H800     H      0.500000000000     0.808100000000     0.901600000000     0          
C801     C      0.500000000000     0.783300000000     0.839600000000     0          
C802     C      0.500000000000     0.748300000000     0.770900000000     0          
H803     H      0.500000000000     0.721300000000     0.788100000000     0          
N804     N      0.500000000000     0.736700000000     0.855900000000     0          
C969     C      0.500000000000     0.894850000000     0.894850000000     0          
C970     C      0.500000000000     0.860300000000     0.860300000000     0          
C971     C      0.500000000000     0.795100000000     0.795100000000     0          


