data_UVAHIK

_audit_creation_method RASPA-1.0
_audit_creation_date 2020-4-3
_audit_author_name 'Rocio Bueno-Perez'

_cell_length_a    32.632
_cell_length_b    32.632
_cell_length_c    32.632
_cell_angle_alpha 90
_cell_angle_beta  90
_cell_angle_gamma 90
_cell_volume      34748.1

_symmetry_cell_setting          cubic
_symmetry_space_group_name_Hall 'P 1'
_symmetry_space_group_name_H-M  'P 1'
_symmetry_Int_Tables_number     1

_symmetry_equiv_pos_as_xyz 'x,y,z'

loop_
_atom_site_label
_atom_site_type_symbol
_atom_site_fract_x
_atom_site_fract_y
_atom_site_fract_z
_atom_site_charge
Zr1      Zr     0.000000000000     0.000000000000     0.075850000000     0          
O1       O      0.037000000000     0.037000000000     0.037000000000     0          
O2       O      0.058600000000     0.000000000000     0.109100000000     0          
C1       C      0.096600000000     0.000000000000     0.096600000000     0          
C2       C      0.117600000000     0.000000000000     0.168300000000     0          
H1       H      0.089400000000     0.000000000000     0.175500000000     0          
C3       C      0.128400000000     0.000000000000     0.128400000000     0          
C4       C      0.188500000000     0.000000000000     0.188500000000     0          
C5       C      0.145700000000     0.000000000000     0.197700000000     0          
H2       H      0.137100000000     0.000000000000     0.225500000000     0          
C6       C      0.221500000000     0.000000000000     0.221500000000     0          
C7       C      0.260300000000     0.000000000000     0.205600000000     0          
H3       H      0.266100000000     0.000000000000     0.177100000000     0          
O2U      O      0.109100000000     0.000000000000     0.058600000000     0          
C2U      C      0.168300000000     0.000000000000     0.117600000000     0          
H1U      H      0.175500000000     0.000000000000     0.089400000000     0          
C5U      C      0.197700000000     0.000000000000     0.145700000000     0          
H2U      H      0.225500000000     0.000000000000     0.137100000000     0          
C7U      C      0.205600000000     0.000000000000     0.260300000000     0          
H3U      H      0.177100000000     0.000000000000     0.266100000000     0          
O2XA     O      0.441400000000     0.000000000000     0.390900000000     0          
C1XA     C      0.403400000000     0.000000000000     0.403400000000     0          
C2XA     C      0.382400000000     0.000000000000     0.331700000000     0          
H1XA     H      0.410600000000     0.000000000000     0.324500000000     0          
C3XA     C      0.371600000000     0.000000000000     0.371600000000     0          
C4XA     C      0.311500000000     0.000000000000     0.311500000000     0          
C5XA     C      0.354300000000     0.000000000000     0.302300000000     0          
H2XA     H      0.362900000000     0.000000000000     0.274500000000     0          
C6XA     C      0.278500000000     0.000000000000     0.278500000000     0          
C7XA     C      0.239700000000     0.000000000000     0.294400000000     0          
H3XA     H      0.233900000000     0.000000000000     0.322900000000     0          
O2SB     O      0.390900000000     0.000000000000     0.441400000000     0          
C2SB     C      0.331700000000     0.000000000000     0.382400000000     0          
H1SB     H      0.324500000000     0.000000000000     0.410600000000     0          
C5SB     C      0.302300000000     0.000000000000     0.354300000000     0          
H2SB     H      0.274500000000     0.000000000000     0.362900000000     0          
C7SB     C      0.294400000000     0.000000000000     0.239700000000     0          
H3SB     H      0.322900000000     0.000000000000     0.233900000000     0          
O1A      O      0.963000000000     0.963000000000     0.037000000000     0          
O2A      O      0.941400000000     0.000000000000     0.109100000000     0          
C1A      C      0.903400000000     0.000000000000     0.096600000000     0          
C2A      C      0.882400000000     0.000000000000     0.168300000000     0          
H1A      H      0.910600000000     0.000000000000     0.175500000000     0          
C3A      C      0.871600000000     0.000000000000     0.128400000000     0          
C4A      C      0.811500000000     0.000000000000     0.188500000000     0          
C5A      C      0.854300000000     0.000000000000     0.197700000000     0          
H2A      H      0.862900000000     0.000000000000     0.225500000000     0          
C6A      C      0.778500000000     0.000000000000     0.221500000000     0          
C7A      C      0.739700000000     0.000000000000     0.205600000000     0          
H3A      H      0.733900000000     0.000000000000     0.177100000000     0          
O2V      O      0.890900000000     0.000000000000     0.058600000000     0          
C2V      C      0.831700000000     0.000000000000     0.117600000000     0          
H1V      H      0.824500000000     0.000000000000     0.089400000000     0          
C5V      C      0.802300000000     0.000000000000     0.145700000000     0          
H2V      H      0.774500000000     0.000000000000     0.137100000000     0          
C7V      C      0.794400000000     0.000000000000     0.260300000000     0          
H3V      H      0.822900000000     0.000000000000     0.266100000000     0          
O2YA     O      0.558600000000     0.000000000000     0.390900000000     0          
C1YA     C      0.596600000000     0.000000000000     0.403400000000     0          
C2YA     C      0.617600000000     0.000000000000     0.331700000000     0          
H1YA     H      0.589400000000     0.000000000000     0.324500000000     0          
C3YA     C      0.628400000000     0.000000000000     0.371600000000     0          
C4YA     C      0.688500000000     0.000000000000     0.311500000000     0          
C5YA     C      0.645700000000     0.000000000000     0.302300000000     0          
H2YA     H      0.637100000000     0.000000000000     0.274500000000     0          
C6YA     C      0.721500000000     0.000000000000     0.278500000000     0          
C7YA     C      0.760300000000     0.000000000000     0.294400000000     0          
H3YA     H      0.766100000000     0.000000000000     0.322900000000     0          
O2PB     O      0.609100000000     0.000000000000     0.441400000000     0          
C2PB     C      0.668300000000     0.000000000000     0.382400000000     0          
H1PB     H      0.675500000000     0.000000000000     0.410600000000     0          
C5PB     C      0.697700000000     0.000000000000     0.354300000000     0          
H2PB     H      0.725500000000     0.000000000000     0.362900000000     0          
C7PB     C      0.705600000000     0.000000000000     0.239700000000     0          
H3PB     H      0.677100000000     0.000000000000     0.233900000000     0          
Zr1D     Zr     0.075850000000     0.000000000000     0.000000000000     0          
O2D      O      0.109100000000     0.058600000000     0.000000000000     0          
C1D      C      0.096600000000     0.096600000000     0.000000000000     0          
C2D      C      0.168300000000     0.117600000000     0.000000000000     0          
H1D      H      0.175500000000     0.089400000000     0.000000000000     0          
C3D      C      0.128400000000     0.128400000000     0.000000000000     0          
C4D      C      0.188500000000     0.188500000000     0.000000000000     0          
C5D      C      0.197700000000     0.145700000000     0.000000000000     0          
H2D      H      0.225500000000     0.137100000000     0.000000000000     0          
C6D      C      0.221500000000     0.221500000000     0.000000000000     0          
C7D      C      0.205600000000     0.260300000000     0.000000000000     0          
H3D      H      0.177100000000     0.266100000000     0.000000000000     0          
O2P      O      0.058600000000     0.109100000000     0.000000000000     0          
C2P      C      0.117600000000     0.168300000000     0.000000000000     0          
H1P      H      0.089400000000     0.175500000000     0.000000000000     0          
C5P      C      0.145700000000     0.197700000000     0.000000000000     0          
H2P      H      0.137100000000     0.225500000000     0.000000000000     0          
C7P      C      0.260300000000     0.205600000000     0.000000000000     0          
H3P      H      0.266100000000     0.177100000000     0.000000000000     0          
O2ZB     O      0.390900000000     0.441400000000     0.000000000000     0          
C1ZB     C      0.403400000000     0.403400000000     0.000000000000     0          
C2ZB     C      0.331700000000     0.382400000000     0.000000000000     0          
H1ZB     H      0.324500000000     0.410600000000     0.000000000000     0          
C3ZB     C      0.371600000000     0.371600000000     0.000000000000     0          
C4ZB     C      0.311500000000     0.311500000000     0.000000000000     0          
C5ZB     C      0.302300000000     0.354300000000     0.000000000000     0          
H2ZB     H      0.274500000000     0.362900000000     0.000000000000     0          
C6ZB     C      0.278500000000     0.278500000000     0.000000000000     0          
C7ZB     C      0.294400000000     0.239700000000     0.000000000000     0          
H3ZB     H      0.322900000000     0.233900000000     0.000000000000     0          
O2LC     O      0.441400000000     0.390900000000     0.000000000000     0          
C2LC     C      0.382400000000     0.331700000000     0.000000000000     0          
H1LC     H      0.410600000000     0.324500000000     0.000000000000     0          
C5LC     C      0.354300000000     0.302300000000     0.000000000000     0          
H2LC     H      0.362900000000     0.274500000000     0.000000000000     0          
C7LC     C      0.239700000000     0.294400000000     0.000000000000     0          
H3LC     H      0.233900000000     0.322900000000     0.000000000000     0          
O1C      O      0.037000000000     0.963000000000     0.963000000000     0          
Zr1F     Zr     0.924150000000     0.000000000000     0.000000000000     0          
O1B      O      0.963000000000     0.037000000000     0.963000000000     0          
Zr1B     Zr     0.000000000000     0.000000000000     0.924150000000     0          
Zr1H     Zr     0.000000000000     0.075850000000     0.000000000000     0          
Zr1J     Zr     0.000000000000     0.924150000000     0.000000000000     0          
Zr1XA    Zr     0.500000000000     0.000000000000     0.424150000000     0          
Zr1ZA    Zr     0.575850000000     0.000000000000     0.500000000000     0          
Zr1BB    Zr     0.424150000000     0.000000000000     0.500000000000     0          
Zr1ZB    Zr     0.424150000000     0.500000000000     0.000000000000     0          
Zr1DC    Zr     0.500000000000     0.424150000000     0.000000000000     0          
O1L      O      0.037000000000     0.037000000000     0.963000000000     0          
O1M      O      0.963000000000     0.963000000000     0.963000000000     0          
O1N      O      0.037000000000     0.963000000000     0.037000000000     0          
O1O      O      0.963000000000     0.037000000000     0.037000000000     0          
O2E      O      0.109100000000     0.941400000000     0.000000000000     0          
O2F      O      0.890900000000     0.941400000000     0.000000000000     0          
O2G      O      0.890900000000     0.058600000000     0.000000000000     0          
O2N      O      0.000000000000     0.941400000000     0.109100000000     0          
O2O      O      0.000000000000     0.058600000000     0.109100000000     0          
O2T      O      0.109100000000     0.000000000000     0.941400000000     0          
O2W      O      0.890900000000     0.000000000000     0.941400000000     0          
C1       C      0.000000000000     0.096600000000     0.096600000000     0          
C2       C      0.000000000000     0.117600000000     0.168300000000     0          
H1       H      0.000000000000     0.089400000000     0.175500000000     0          
C3       C      0.000000000000     0.128400000000     0.128400000000     0          
C4       C      0.000000000000     0.188500000000     0.188500000000     0          
C5       C      0.000000000000     0.145700000000     0.197700000000     0          
H2       H      0.000000000000     0.137100000000     0.225500000000     0          
C6       C      0.000000000000     0.221500000000     0.221500000000     0          
C7       C      0.000000000000     0.260300000000     0.205600000000     0          
H3       H      0.000000000000     0.266100000000     0.177100000000     0          
O2U      O      0.000000000000     0.109100000000     0.058600000000     0          
C2U      C      0.000000000000     0.168300000000     0.117600000000     0          
H1U      H      0.000000000000     0.175500000000     0.089400000000     0          
C5U      C      0.000000000000     0.197700000000     0.145700000000     0          
H2U      H      0.000000000000     0.225500000000     0.137100000000     0          
C7U      C      0.000000000000     0.205600000000     0.260300000000     0          
H3U      H      0.000000000000     0.177100000000     0.266100000000     0          
O2XA     O      0.000000000000     0.441400000000     0.390900000000     0          
C1XA     C      0.000000000000     0.403400000000     0.403400000000     0          
C2XA     C      0.000000000000     0.382400000000     0.331700000000     0          
H1XA     H      0.000000000000     0.410600000000     0.324500000000     0          
C3XA     C      0.000000000000     0.371600000000     0.371600000000     0          
C4XA     C      0.000000000000     0.311500000000     0.311500000000     0          
C5XA     C      0.000000000000     0.354300000000     0.302300000000     0          
H2XA     H      0.000000000000     0.362900000000     0.274500000000     0          
C6XA     C      0.000000000000     0.278500000000     0.278500000000     0          
C7XA     C      0.000000000000     0.239700000000     0.294400000000     0          
H3XA     H      0.000000000000     0.233900000000     0.322900000000     0          
O2SB     O      0.000000000000     0.390900000000     0.441400000000     0          
C2SB     C      0.000000000000     0.331700000000     0.382400000000     0          
H1SB     H      0.000000000000     0.324500000000     0.410600000000     0          
C5SB     C      0.000000000000     0.302300000000     0.354300000000     0          
H2SB     H      0.000000000000     0.274500000000     0.362900000000     0          
C7SB     C      0.000000000000     0.294400000000     0.239700000000     0          
H3SB     H      0.000000000000     0.322900000000     0.233900000000     0          
C1A      C      0.000000000000     0.903400000000     0.096600000000     0          
C2A      C      0.000000000000     0.882400000000     0.168300000000     0          
H1A      H      0.000000000000     0.910600000000     0.175500000000     0          
C3A      C      0.000000000000     0.871600000000     0.128400000000     0          
C4A      C      0.000000000000     0.811500000000     0.188500000000     0          
C5A      C      0.000000000000     0.854300000000     0.197700000000     0          
H2A      H      0.000000000000     0.862900000000     0.225500000000     0          
C6A      C      0.000000000000     0.778500000000     0.221500000000     0          
C7A      C      0.000000000000     0.739700000000     0.205600000000     0          
H3A      H      0.000000000000     0.733900000000     0.177100000000     0          
O2V      O      0.000000000000     0.890900000000     0.058600000000     0          
C2V      C      0.000000000000     0.831700000000     0.117600000000     0          
H1V      H      0.000000000000     0.824500000000     0.089400000000     0          
C5V      C      0.000000000000     0.802300000000     0.145700000000     0          
H2V      H      0.000000000000     0.774500000000     0.137100000000     0          
C7V      C      0.000000000000     0.794400000000     0.260300000000     0          
H3V      H      0.000000000000     0.822900000000     0.266100000000     0          
O2YA     O      0.000000000000     0.558600000000     0.390900000000     0          
C1YA     C      0.000000000000     0.596600000000     0.403400000000     0          
C2YA     C      0.000000000000     0.617600000000     0.331700000000     0          
H1YA     H      0.000000000000     0.589400000000     0.324500000000     0          
C3YA     C      0.000000000000     0.628400000000     0.371600000000     0          
C4YA     C      0.000000000000     0.688500000000     0.311500000000     0          
C5YA     C      0.000000000000     0.645700000000     0.302300000000     0          
H2YA     H      0.000000000000     0.637100000000     0.274500000000     0          
C6YA     C      0.000000000000     0.721500000000     0.278500000000     0          
C7YA     C      0.000000000000     0.760300000000     0.294400000000     0          
H3YA     H      0.000000000000     0.766100000000     0.322900000000     0          
O2PB     O      0.000000000000     0.609100000000     0.441400000000     0          
C2PB     C      0.000000000000     0.668300000000     0.382400000000     0          
H1PB     H      0.000000000000     0.675500000000     0.410600000000     0          
C5PB     C      0.000000000000     0.697700000000     0.354300000000     0          
H2PB     H      0.000000000000     0.725500000000     0.362900000000     0          
C7PB     C      0.000000000000     0.705600000000     0.239700000000     0          
H3PB     H      0.000000000000     0.677100000000     0.233900000000     0          
O2D      O      0.941400000000     0.109100000000     0.000000000000     0          
C1D      C      0.903400000000     0.096600000000     0.000000000000     0          
C2D      C      0.882400000000     0.168300000000     0.000000000000     0          
H1D      H      0.910600000000     0.175500000000     0.000000000000     0          
C3D      C      0.871600000000     0.128400000000     0.000000000000     0          
C4D      C      0.811500000000     0.188500000000     0.000000000000     0          
C5D      C      0.854300000000     0.197700000000     0.000000000000     0          
H2D      H      0.862900000000     0.225500000000     0.000000000000     0          
C6D      C      0.778500000000     0.221500000000     0.000000000000     0          
C7D      C      0.739700000000     0.205600000000     0.000000000000     0          
H3D      H      0.733900000000     0.177100000000     0.000000000000     0          
C2P      C      0.831700000000     0.117600000000     0.000000000000     0          
H1P      H      0.824500000000     0.089400000000     0.000000000000     0          
C5P      C      0.802300000000     0.145700000000     0.000000000000     0          
H2P      H      0.774500000000     0.137100000000     0.000000000000     0          
C7P      C      0.794400000000     0.260300000000     0.000000000000     0          
H3P      H      0.822900000000     0.266100000000     0.000000000000     0          
O2ZB     O      0.558600000000     0.390900000000     0.000000000000     0          
C1ZB     C      0.596600000000     0.403400000000     0.000000000000     0          
C2ZB     C      0.617600000000     0.331700000000     0.000000000000     0          
H1ZB     H      0.589400000000     0.324500000000     0.000000000000     0          
C3ZB     C      0.628400000000     0.371600000000     0.000000000000     0          
C4ZB     C      0.688500000000     0.311500000000     0.000000000000     0          
C5ZB     C      0.645700000000     0.302300000000     0.000000000000     0          
H2ZB     H      0.637100000000     0.274500000000     0.000000000000     0          
C6ZB     C      0.721500000000     0.278500000000     0.000000000000     0          
C7ZB     C      0.760300000000     0.294400000000     0.000000000000     0          
H3ZB     H      0.766100000000     0.322900000000     0.000000000000     0          
O2LC     O      0.609100000000     0.441400000000     0.000000000000     0          
C2LC     C      0.668300000000     0.382400000000     0.000000000000     0          
H1LC     H      0.675500000000     0.410600000000     0.000000000000     0          
C5LC     C      0.697700000000     0.354300000000     0.000000000000     0          
H2LC     H      0.725500000000     0.362900000000     0.000000000000     0          
C7LC     C      0.705600000000     0.239700000000     0.000000000000     0          
H3LC     H      0.677100000000     0.233900000000     0.000000000000     0          
Zr1XA    Zr     0.000000000000     0.500000000000     0.424150000000     0          
Zr1ZA    Zr     0.000000000000     0.575850000000     0.500000000000     0          
Zr1BB    Zr     0.000000000000     0.424150000000     0.500000000000     0          
Zr1DC    Zr     0.575850000000     0.500000000000     0.000000000000     0          
O2F      O      0.058600000000     0.890900000000     0.000000000000     0          
O2G      O      0.941400000000     0.890900000000     0.000000000000     0          
O2T      O      0.000000000000     0.109100000000     0.941400000000     0          
O2W      O      0.000000000000     0.890900000000     0.941400000000     0          
C1D      C      0.903400000000     0.903400000000     0.000000000000     0          
C2D      C      0.831700000000     0.882400000000     0.000000000000     0          
H1D      H      0.824500000000     0.910600000000     0.000000000000     0          
C3D      C      0.871600000000     0.871600000000     0.000000000000     0          
C4D      C      0.811500000000     0.811500000000     0.000000000000     0          
C5D      C      0.802300000000     0.854300000000     0.000000000000     0          
H2D      H      0.774500000000     0.862900000000     0.000000000000     0          
C6D      C      0.778500000000     0.778500000000     0.000000000000     0          
C7D      C      0.794400000000     0.739700000000     0.000000000000     0          
H3D      H      0.822900000000     0.733900000000     0.000000000000     0          
C2P      C      0.882400000000     0.831700000000     0.000000000000     0          
H1P      H      0.910600000000     0.824500000000     0.000000000000     0          
C5P      C      0.854300000000     0.802300000000     0.000000000000     0          
H2P      H      0.862900000000     0.774500000000     0.000000000000     0          
C7P      C      0.739700000000     0.794400000000     0.000000000000     0          
H3P      H      0.733900000000     0.822900000000     0.000000000000     0          
O2ZB     O      0.609100000000     0.558600000000     0.000000000000     0          
C1ZB     C      0.596600000000     0.596600000000     0.000000000000     0          
C2ZB     C      0.668300000000     0.617600000000     0.000000000000     0          
H1ZB     H      0.675500000000     0.589400000000     0.000000000000     0          
C3ZB     C      0.628400000000     0.628400000000     0.000000000000     0          
C4ZB     C      0.688500000000     0.688500000000     0.000000000000     0          
C5ZB     C      0.697700000000     0.645700000000     0.000000000000     0          
H2ZB     H      0.725500000000     0.637100000000     0.000000000000     0          
C6ZB     C      0.721500000000     0.721500000000     0.000000000000     0          
C7ZB     C      0.705600000000     0.760300000000     0.000000000000     0          
H3ZB     H      0.677100000000     0.766100000000     0.000000000000     0          
O2LC     O      0.558600000000     0.609100000000     0.000000000000     0          
C2LC     C      0.617600000000     0.668300000000     0.000000000000     0          
H1LC     H      0.589400000000     0.675500000000     0.000000000000     0          
C5LC     C      0.645700000000     0.697700000000     0.000000000000     0          
H2LC     H      0.637100000000     0.725500000000     0.000000000000     0          
C7LC     C      0.760300000000     0.705600000000     0.000000000000     0          
H3LC     H      0.766100000000     0.677100000000     0.000000000000     0          
Zr1DC    Zr     0.500000000000     0.575850000000     0.000000000000     0          
C1D      C      0.096600000000     0.903400000000     0.000000000000     0          
C2D      C      0.117600000000     0.831700000000     0.000000000000     0          
H1D      H      0.089400000000     0.824500000000     0.000000000000     0          
C3D      C      0.128400000000     0.871600000000     0.000000000000     0          
C4D      C      0.188500000000     0.811500000000     0.000000000000     0          
C5D      C      0.145700000000     0.802300000000     0.000000000000     0          
H2D      H      0.137100000000     0.774500000000     0.000000000000     0          
C6D      C      0.221500000000     0.778500000000     0.000000000000     0          
C7D      C      0.260300000000     0.794400000000     0.000000000000     0          
H3D      H      0.266100000000     0.822900000000     0.000000000000     0          
C2P      C      0.168300000000     0.882400000000     0.000000000000     0          
H1P      H      0.175500000000     0.910600000000     0.000000000000     0          
C5P      C      0.197700000000     0.854300000000     0.000000000000     0          
H2P      H      0.225500000000     0.862900000000     0.000000000000     0          
C7P      C      0.205600000000     0.739700000000     0.000000000000     0          
H3P      H      0.177100000000     0.733900000000     0.000000000000     0          
O2ZB     O      0.441400000000     0.609100000000     0.000000000000     0          
C1ZB     C      0.403400000000     0.596600000000     0.000000000000     0          
C2ZB     C      0.382400000000     0.668300000000     0.000000000000     0          
H1ZB     H      0.410600000000     0.675500000000     0.000000000000     0          
C3ZB     C      0.371600000000     0.628400000000     0.000000000000     0          
C4ZB     C      0.311500000000     0.688500000000     0.000000000000     0          
C5ZB     C      0.354300000000     0.697700000000     0.000000000000     0          
H2ZB     H      0.362900000000     0.725500000000     0.000000000000     0          
C6ZB     C      0.278500000000     0.721500000000     0.000000000000     0          
C7ZB     C      0.239700000000     0.705600000000     0.000000000000     0          
H3ZB     H      0.233900000000     0.677100000000     0.000000000000     0          
O2LC     O      0.390900000000     0.558600000000     0.000000000000     0          
C2LC     C      0.331700000000     0.617600000000     0.000000000000     0          
H1LC     H      0.324500000000     0.589400000000     0.000000000000     0          
C5LC     C      0.302300000000     0.645700000000     0.000000000000     0          
H2LC     H      0.274500000000     0.637100000000     0.000000000000     0          
C7LC     C      0.294400000000     0.760300000000     0.000000000000     0          
H3LC     H      0.322900000000     0.766100000000     0.000000000000     0          
O2       O      0.058600000000     0.000000000000     0.890900000000     0          
C1       C      0.096600000000     0.000000000000     0.903400000000     0          
C2       C      0.117600000000     0.000000000000     0.831700000000     0          
H1       H      0.089400000000     0.000000000000     0.824500000000     0          
C3       C      0.128400000000     0.000000000000     0.871600000000     0          
C4       C      0.188500000000     0.000000000000     0.811500000000     0          
C5       C      0.145700000000     0.000000000000     0.802300000000     0          
H2       H      0.137100000000     0.000000000000     0.774500000000     0          
C6       C      0.221500000000     0.000000000000     0.778500000000     0          
C7       C      0.260300000000     0.000000000000     0.794400000000     0          
H3       H      0.266100000000     0.000000000000     0.822900000000     0          
C2U      C      0.168300000000     0.000000000000     0.882400000000     0          
H1U      H      0.175500000000     0.000000000000     0.910600000000     0          
C5U      C      0.197700000000     0.000000000000     0.854300000000     0          
H2U      H      0.225500000000     0.000000000000     0.862900000000     0          
C7U      C      0.205600000000     0.000000000000     0.739700000000     0          
H3U      H      0.177100000000     0.000000000000     0.733900000000     0          
O2XA     O      0.441400000000     0.000000000000     0.609100000000     0          
C1XA     C      0.403400000000     0.000000000000     0.596600000000     0          
C2XA     C      0.382400000000     0.000000000000     0.668300000000     0          
H1XA     H      0.410600000000     0.000000000000     0.675500000000     0          
C3XA     C      0.371600000000     0.000000000000     0.628400000000     0          
C4XA     C      0.311500000000     0.000000000000     0.688500000000     0          
C5XA     C      0.354300000000     0.000000000000     0.697700000000     0          
H2XA     H      0.362900000000     0.000000000000     0.725500000000     0          
C6XA     C      0.278500000000     0.000000000000     0.721500000000     0          
C7XA     C      0.239700000000     0.000000000000     0.705600000000     0          
H3XA     H      0.233900000000     0.000000000000     0.677100000000     0          
O2SB     O      0.390900000000     0.000000000000     0.558600000000     0          
C2SB     C      0.331700000000     0.000000000000     0.617600000000     0          
H1SB     H      0.324500000000     0.000000000000     0.589400000000     0          
C5SB     C      0.302300000000     0.000000000000     0.645700000000     0          
H2SB     H      0.274500000000     0.000000000000     0.637100000000     0          
C7SB     C      0.294400000000     0.000000000000     0.760300000000     0          
H3SB     H      0.322900000000     0.000000000000     0.766100000000     0          
O2A      O      0.941400000000     0.000000000000     0.890900000000     0          
C1A      C      0.903400000000     0.000000000000     0.903400000000     0          
C2A      C      0.882400000000     0.000000000000     0.831700000000     0          
H1A      H      0.910600000000     0.000000000000     0.824500000000     0          
C3A      C      0.871600000000     0.000000000000     0.871600000000     0          
C4A      C      0.811500000000     0.000000000000     0.811500000000     0          
C5A      C      0.854300000000     0.000000000000     0.802300000000     0          
H2A      H      0.862900000000     0.000000000000     0.774500000000     0          
C6A      C      0.778500000000     0.000000000000     0.778500000000     0          
C7A      C      0.739700000000     0.000000000000     0.794400000000     0          
H3A      H      0.733900000000     0.000000000000     0.822900000000     0          
C2V      C      0.831700000000     0.000000000000     0.882400000000     0          
H1V      H      0.824500000000     0.000000000000     0.910600000000     0          
C5V      C      0.802300000000     0.000000000000     0.854300000000     0          
H2V      H      0.774500000000     0.000000000000     0.862900000000     0          
C7V      C      0.794400000000     0.000000000000     0.739700000000     0          
H3V      H      0.822900000000     0.000000000000     0.733900000000     0          
O2YA     O      0.558600000000     0.000000000000     0.609100000000     0          
C1YA     C      0.596600000000     0.000000000000     0.596600000000     0          
C2YA     C      0.617600000000     0.000000000000     0.668300000000     0          
H1YA     H      0.589400000000     0.000000000000     0.675500000000     0          
C3YA     C      0.628400000000     0.000000000000     0.628400000000     0          
C4YA     C      0.688500000000     0.000000000000     0.688500000000     0          
C5YA     C      0.645700000000     0.000000000000     0.697700000000     0          
H2YA     H      0.637100000000     0.000000000000     0.725500000000     0          
C6YA     C      0.721500000000     0.000000000000     0.721500000000     0          
C7YA     C      0.760300000000     0.000000000000     0.705600000000     0          
H3YA     H      0.766100000000     0.000000000000     0.677100000000     0          
O2PB     O      0.609100000000     0.000000000000     0.558600000000     0          
C2PB     C      0.668300000000     0.000000000000     0.617600000000     0          
H1PB     H      0.675500000000     0.000000000000     0.589400000000     0          
C5PB     C      0.697700000000     0.000000000000     0.645700000000     0          
H2PB     H      0.725500000000     0.000000000000     0.637100000000     0          
C7PB     C      0.705600000000     0.000000000000     0.760300000000     0          
H3PB     H      0.677100000000     0.000000000000     0.766100000000     0          
Zr1XA    Zr     0.500000000000     0.000000000000     0.575850000000     0          
O2N      O      0.000000000000     0.058600000000     0.890900000000     0          
O2O      O      0.000000000000     0.941400000000     0.890900000000     0          
C1       C      0.000000000000     0.096600000000     0.903400000000     0          
C2       C      0.000000000000     0.117600000000     0.831700000000     0          
H1       H      0.000000000000     0.089400000000     0.824500000000     0          
C3       C      0.000000000000     0.128400000000     0.871600000000     0          
C4       C      0.000000000000     0.188500000000     0.811500000000     0          
C5       C      0.000000000000     0.145700000000     0.802300000000     0          
H2       H      0.000000000000     0.137100000000     0.774500000000     0          
C6       C      0.000000000000     0.221500000000     0.778500000000     0          
C7       C      0.000000000000     0.260300000000     0.794400000000     0          
H3       H      0.000000000000     0.266100000000     0.822900000000     0          
C2U      C      0.000000000000     0.168300000000     0.882400000000     0          
H1U      H      0.000000000000     0.175500000000     0.910600000000     0          
C5U      C      0.000000000000     0.197700000000     0.854300000000     0          
H2U      H      0.000000000000     0.225500000000     0.862900000000     0          
C7U      C      0.000000000000     0.205600000000     0.739700000000     0          
H3U      H      0.000000000000     0.177100000000     0.733900000000     0          
O2XA     O      0.000000000000     0.441400000000     0.609100000000     0          
C1XA     C      0.000000000000     0.403400000000     0.596600000000     0          
C2XA     C      0.000000000000     0.382400000000     0.668300000000     0          
H1XA     H      0.000000000000     0.410600000000     0.675500000000     0          
C3XA     C      0.000000000000     0.371600000000     0.628400000000     0          
C4XA     C      0.000000000000     0.311500000000     0.688500000000     0          
C5XA     C      0.000000000000     0.354300000000     0.697700000000     0          
H2XA     H      0.000000000000     0.362900000000     0.725500000000     0          
C6XA     C      0.000000000000     0.278500000000     0.721500000000     0          
C7XA     C      0.000000000000     0.239700000000     0.705600000000     0          
H3XA     H      0.000000000000     0.233900000000     0.677100000000     0          
O2SB     O      0.000000000000     0.390900000000     0.558600000000     0          
C2SB     C      0.000000000000     0.331700000000     0.617600000000     0          
H1SB     H      0.000000000000     0.324500000000     0.589400000000     0          
C5SB     C      0.000000000000     0.302300000000     0.645700000000     0          
H2SB     H      0.000000000000     0.274500000000     0.637100000000     0          
C7SB     C      0.000000000000     0.294400000000     0.760300000000     0          
H3SB     H      0.000000000000     0.322900000000     0.766100000000     0          
C1A      C      0.000000000000     0.903400000000     0.903400000000     0          
C2A      C      0.000000000000     0.882400000000     0.831700000000     0          
H1A      H      0.000000000000     0.910600000000     0.824500000000     0          
C3A      C      0.000000000000     0.871600000000     0.871600000000     0          
C4A      C      0.000000000000     0.811500000000     0.811500000000     0          
C5A      C      0.000000000000     0.854300000000     0.802300000000     0          
H2A      H      0.000000000000     0.862900000000     0.774500000000     0          
C6A      C      0.000000000000     0.778500000000     0.778500000000     0          
C7A      C      0.000000000000     0.739700000000     0.794400000000     0          
H3A      H      0.000000000000     0.733900000000     0.822900000000     0          
C2V      C      0.000000000000     0.831700000000     0.882400000000     0          
H1V      H      0.000000000000     0.824500000000     0.910600000000     0          
C5V      C      0.000000000000     0.802300000000     0.854300000000     0          
H2V      H      0.000000000000     0.774500000000     0.862900000000     0          
C7V      C      0.000000000000     0.794400000000     0.739700000000     0          
H3V      H      0.000000000000     0.822900000000     0.733900000000     0          
O2YA     O      0.000000000000     0.558600000000     0.609100000000     0          
C1YA     C      0.000000000000     0.596600000000     0.596600000000     0          
C2YA     C      0.000000000000     0.617600000000     0.668300000000     0          
H1YA     H      0.000000000000     0.589400000000     0.675500000000     0          
C3YA     C      0.000000000000     0.628400000000     0.628400000000     0          
C4YA     C      0.000000000000     0.688500000000     0.688500000000     0          
C5YA     C      0.000000000000     0.645700000000     0.697700000000     0          
H2YA     H      0.000000000000     0.637100000000     0.725500000000     0          
C6YA     C      0.000000000000     0.721500000000     0.721500000000     0          
C7YA     C      0.000000000000     0.760300000000     0.705600000000     0          
H3YA     H      0.000000000000     0.766100000000     0.677100000000     0          
O2PB     O      0.000000000000     0.609100000000     0.558600000000     0          
C2PB     C      0.000000000000     0.668300000000     0.617600000000     0          
H1PB     H      0.000000000000     0.675500000000     0.589400000000     0          
C5PB     C      0.000000000000     0.697700000000     0.645700000000     0          
H2PB     H      0.000000000000     0.725500000000     0.637100000000     0          
C7PB     C      0.000000000000     0.705600000000     0.760300000000     0          
H3PB     H      0.000000000000     0.677100000000     0.766100000000     0          
Zr1XA    Zr     0.000000000000     0.500000000000     0.575850000000     0          
O1       O      0.037000000000     0.537000000000     0.537000000000     0          
O2       O      0.058600000000     0.500000000000     0.609100000000     0          
C1       C      0.096600000000     0.500000000000     0.596600000000     0          
C2       C      0.117600000000     0.500000000000     0.668300000000     0          
H1       H      0.089400000000     0.500000000000     0.675500000000     0          
C3       C      0.128400000000     0.500000000000     0.628400000000     0          
C4       C      0.188500000000     0.500000000000     0.688500000000     0          
C5       C      0.145700000000     0.500000000000     0.697700000000     0          
H2       H      0.137100000000     0.500000000000     0.725500000000     0          
C6       C      0.221500000000     0.500000000000     0.721500000000     0          
C7       C      0.260300000000     0.500000000000     0.705600000000     0          
H3       H      0.266100000000     0.500000000000     0.677100000000     0          
O2U      O      0.109100000000     0.500000000000     0.558600000000     0          
C2U      C      0.168300000000     0.500000000000     0.617600000000     0          
H1U      H      0.175500000000     0.500000000000     0.589400000000     0          
C5U      C      0.197700000000     0.500000000000     0.645700000000     0          
H2U      H      0.225500000000     0.500000000000     0.637100000000     0          
C7U      C      0.205600000000     0.500000000000     0.760300000000     0          
H3U      H      0.177100000000     0.500000000000     0.766100000000     0          
O2XA     O      0.441400000000     0.500000000000     0.890900000000     0          
C1XA     C      0.403400000000     0.500000000000     0.903400000000     0          
C2XA     C      0.382400000000     0.500000000000     0.831700000000     0          
H1XA     H      0.410600000000     0.500000000000     0.824500000000     0          
C3XA     C      0.371600000000     0.500000000000     0.871600000000     0          
C4XA     C      0.311500000000     0.500000000000     0.811500000000     0          
C5XA     C      0.354300000000     0.500000000000     0.802300000000     0          
H2XA     H      0.362900000000     0.500000000000     0.774500000000     0          
C6XA     C      0.278500000000     0.500000000000     0.778500000000     0          
C7XA     C      0.239700000000     0.500000000000     0.794400000000     0          
H3XA     H      0.233900000000     0.500000000000     0.822900000000     0          
O2SB     O      0.390900000000     0.500000000000     0.941400000000     0          
C2SB     C      0.331700000000     0.500000000000     0.882400000000     0          
H1SB     H      0.324500000000     0.500000000000     0.910600000000     0          
C5SB     C      0.302300000000     0.500000000000     0.854300000000     0          
H2SB     H      0.274500000000     0.500000000000     0.862900000000     0          
C7SB     C      0.294400000000     0.500000000000     0.739700000000     0          
H3SB     H      0.322900000000     0.500000000000     0.733900000000     0          
O1A      O      0.963000000000     0.463000000000     0.537000000000     0          
O2A      O      0.941400000000     0.500000000000     0.609100000000     0          
C1A      C      0.903400000000     0.500000000000     0.596600000000     0          
C2A      C      0.882400000000     0.500000000000     0.668300000000     0          
H1A      H      0.910600000000     0.500000000000     0.675500000000     0          
C3A      C      0.871600000000     0.500000000000     0.628400000000     0          
C4A      C      0.811500000000     0.500000000000     0.688500000000     0          
C5A      C      0.854300000000     0.500000000000     0.697700000000     0          
H2A      H      0.862900000000     0.500000000000     0.725500000000     0          
C6A      C      0.778500000000     0.500000000000     0.721500000000     0          
C7A      C      0.739700000000     0.500000000000     0.705600000000     0          
H3A      H      0.733900000000     0.500000000000     0.677100000000     0          
O2V      O      0.890900000000     0.500000000000     0.558600000000     0          
C2V      C      0.831700000000     0.500000000000     0.617600000000     0          
H1V      H      0.824500000000     0.500000000000     0.589400000000     0          
C5V      C      0.802300000000     0.500000000000     0.645700000000     0          
H2V      H      0.774500000000     0.500000000000     0.637100000000     0          
C7V      C      0.794400000000     0.500000000000     0.760300000000     0          
H3V      H      0.822900000000     0.500000000000     0.766100000000     0          
O2YA     O      0.558600000000     0.500000000000     0.890900000000     0          
C1YA     C      0.596600000000     0.500000000000     0.903400000000     0          
C2YA     C      0.617600000000     0.500000000000     0.831700000000     0          
H1YA     H      0.589400000000     0.500000000000     0.824500000000     0          
C3YA     C      0.628400000000     0.500000000000     0.871600000000     0          
C4YA     C      0.688500000000     0.500000000000     0.811500000000     0          
C5YA     C      0.645700000000     0.500000000000     0.802300000000     0          
H2YA     H      0.637100000000     0.500000000000     0.774500000000     0          
C6YA     C      0.721500000000     0.500000000000     0.778500000000     0          
C7YA     C      0.760300000000     0.500000000000     0.794400000000     0          
H3YA     H      0.766100000000     0.500000000000     0.822900000000     0          
O2PB     O      0.609100000000     0.500000000000     0.941400000000     0          
C2PB     C      0.668300000000     0.500000000000     0.882400000000     0          
H1PB     H      0.675500000000     0.500000000000     0.910600000000     0          
C5PB     C      0.697700000000     0.500000000000     0.854300000000     0          
H2PB     H      0.725500000000     0.500000000000     0.862900000000     0          
C7PB     C      0.705600000000     0.500000000000     0.739700000000     0          
H3PB     H      0.677100000000     0.500000000000     0.733900000000     0          
Zr1D     Zr     0.075850000000     0.500000000000     0.500000000000     0          
O2D      O      0.109100000000     0.558600000000     0.500000000000     0          
C1D      C      0.096600000000     0.596600000000     0.500000000000     0          
C2D      C      0.168300000000     0.617600000000     0.500000000000     0          
H1D      H      0.175500000000     0.589400000000     0.500000000000     0          
C3D      C      0.128400000000     0.628400000000     0.500000000000     0          
C4D      C      0.188500000000     0.688500000000     0.500000000000     0          
C5D      C      0.197700000000     0.645700000000     0.500000000000     0          
H2D      H      0.225500000000     0.637100000000     0.500000000000     0          
C6D      C      0.221500000000     0.721500000000     0.500000000000     0          
C7D      C      0.205600000000     0.760300000000     0.500000000000     0          
H3D      H      0.177100000000     0.766100000000     0.500000000000     0          
O2P      O      0.058600000000     0.609100000000     0.500000000000     0          
C2P      C      0.117600000000     0.668300000000     0.500000000000     0          
H1P      H      0.089400000000     0.675500000000     0.500000000000     0          
C5P      C      0.145700000000     0.697700000000     0.500000000000     0          
H2P      H      0.137100000000     0.725500000000     0.500000000000     0          
C7P      C      0.260300000000     0.705600000000     0.500000000000     0          
H3P      H      0.266100000000     0.677100000000     0.500000000000     0          
O2ZB     O      0.390900000000     0.941400000000     0.500000000000     0          
C1ZB     C      0.403400000000     0.903400000000     0.500000000000     0          
C2ZB     C      0.331700000000     0.882400000000     0.500000000000     0          
H1ZB     H      0.324500000000     0.910600000000     0.500000000000     0          
C3ZB     C      0.371600000000     0.871600000000     0.500000000000     0          
C4ZB     C      0.311500000000     0.811500000000     0.500000000000     0          
C5ZB     C      0.302300000000     0.854300000000     0.500000000000     0          
H2ZB     H      0.274500000000     0.862900000000     0.500000000000     0          
C6ZB     C      0.278500000000     0.778500000000     0.500000000000     0          
C7ZB     C      0.294400000000     0.739700000000     0.500000000000     0          
H3ZB     H      0.322900000000     0.733900000000     0.500000000000     0          
O2LC     O      0.441400000000     0.890900000000     0.500000000000     0          
C2LC     C      0.382400000000     0.831700000000     0.500000000000     0          
H1LC     H      0.410600000000     0.824500000000     0.500000000000     0          
C5LC     C      0.354300000000     0.802300000000     0.500000000000     0          
H2LC     H      0.362900000000     0.774500000000     0.500000000000     0          
C7LC     C      0.239700000000     0.794400000000     0.500000000000     0          
H3LC     H      0.233900000000     0.822900000000     0.500000000000     0          
O1C      O      0.037000000000     0.463000000000     0.463000000000     0          
Zr1F     Zr     0.924150000000     0.500000000000     0.500000000000     0          
O1B      O      0.963000000000     0.537000000000     0.463000000000     0          
Zr1XA    Zr     0.500000000000     0.500000000000     0.924150000000     0          
Zr1DC    Zr     0.500000000000     0.924150000000     0.500000000000     0          
O1L      O      0.037000000000     0.537000000000     0.463000000000     0          
O1M      O      0.963000000000     0.463000000000     0.463000000000     0          
O1N      O      0.037000000000     0.463000000000     0.537000000000     0          
O1O      O      0.963000000000     0.537000000000     0.537000000000     0          
O2E      O      0.109100000000     0.441400000000     0.500000000000     0          
O2F      O      0.890900000000     0.441400000000     0.500000000000     0          
O2G      O      0.890900000000     0.558600000000     0.500000000000     0          
O2T      O      0.109100000000     0.500000000000     0.441400000000     0          
O2W      O      0.890900000000     0.500000000000     0.441400000000     0          
O2D      O      0.941400000000     0.609100000000     0.500000000000     0          
C1D      C      0.903400000000     0.596600000000     0.500000000000     0          
C2D      C      0.882400000000     0.668300000000     0.500000000000     0          
H1D      H      0.910600000000     0.675500000000     0.500000000000     0          
C3D      C      0.871600000000     0.628400000000     0.500000000000     0          
C4D      C      0.811500000000     0.688500000000     0.500000000000     0          
C5D      C      0.854300000000     0.697700000000     0.500000000000     0          
H2D      H      0.862900000000     0.725500000000     0.500000000000     0          
C6D      C      0.778500000000     0.721500000000     0.500000000000     0          
C7D      C      0.739700000000     0.705600000000     0.500000000000     0          
H3D      H      0.733900000000     0.677100000000     0.500000000000     0          
C2P      C      0.831700000000     0.617600000000     0.500000000000     0          
H1P      H      0.824500000000     0.589400000000     0.500000000000     0          
C5P      C      0.802300000000     0.645700000000     0.500000000000     0          
H2P      H      0.774500000000     0.637100000000     0.500000000000     0          
C7P      C      0.794400000000     0.760300000000     0.500000000000     0          
H3P      H      0.822900000000     0.766100000000     0.500000000000     0          
O2ZB     O      0.558600000000     0.890900000000     0.500000000000     0          
C1ZB     C      0.596600000000     0.903400000000     0.500000000000     0          
C2ZB     C      0.617600000000     0.831700000000     0.500000000000     0          
H1ZB     H      0.589400000000     0.824500000000     0.500000000000     0          
C3ZB     C      0.628400000000     0.871600000000     0.500000000000     0          
C4ZB     C      0.688500000000     0.811500000000     0.500000000000     0          
C5ZB     C      0.645700000000     0.802300000000     0.500000000000     0          
H2ZB     H      0.637100000000     0.774500000000     0.500000000000     0          
C6ZB     C      0.721500000000     0.778500000000     0.500000000000     0          
C7ZB     C      0.760300000000     0.794400000000     0.500000000000     0          
H3ZB     H      0.766100000000     0.822900000000     0.500000000000     0          
O2LC     O      0.609100000000     0.941400000000     0.500000000000     0          
C2LC     C      0.668300000000     0.882400000000     0.500000000000     0          
H1LC     H      0.675500000000     0.910600000000     0.500000000000     0          
C5LC     C      0.697700000000     0.854300000000     0.500000000000     0          
H2LC     H      0.725500000000     0.862900000000     0.500000000000     0          
C7LC     C      0.705600000000     0.739700000000     0.500000000000     0          
H3LC     H      0.677100000000     0.733900000000     0.500000000000     0          
O2F      O      0.058600000000     0.390900000000     0.500000000000     0          
O2G      O      0.941400000000     0.390900000000     0.500000000000     0          
C1D      C      0.903400000000     0.403400000000     0.500000000000     0          
C2D      C      0.831700000000     0.382400000000     0.500000000000     0          
H1D      H      0.824500000000     0.410600000000     0.500000000000     0          
C3D      C      0.871600000000     0.371600000000     0.500000000000     0          
C4D      C      0.811500000000     0.311500000000     0.500000000000     0          
C5D      C      0.802300000000     0.354300000000     0.500000000000     0          
H2D      H      0.774500000000     0.362900000000     0.500000000000     0          
C6D      C      0.778500000000     0.278500000000     0.500000000000     0          
C7D      C      0.794400000000     0.239700000000     0.500000000000     0          
H3D      H      0.822900000000     0.233900000000     0.500000000000     0          
C2P      C      0.882400000000     0.331700000000     0.500000000000     0          
H1P      H      0.910600000000     0.324500000000     0.500000000000     0          
C5P      C      0.854300000000     0.302300000000     0.500000000000     0          
H2P      H      0.862900000000     0.274500000000     0.500000000000     0          
C7P      C      0.739700000000     0.294400000000     0.500000000000     0          
H3P      H      0.733900000000     0.322900000000     0.500000000000     0          
O2ZB     O      0.609100000000     0.058600000000     0.500000000000     0          
C1ZB     C      0.596600000000     0.096600000000     0.500000000000     0          
C2ZB     C      0.668300000000     0.117600000000     0.500000000000     0          
H1ZB     H      0.675500000000     0.089400000000     0.500000000000     0          
C3ZB     C      0.628400000000     0.128400000000     0.500000000000     0          
C4ZB     C      0.688500000000     0.188500000000     0.500000000000     0          
C5ZB     C      0.697700000000     0.145700000000     0.500000000000     0          
H2ZB     H      0.725500000000     0.137100000000     0.500000000000     0          
C6ZB     C      0.721500000000     0.221500000000     0.500000000000     0          
C7ZB     C      0.705600000000     0.260300000000     0.500000000000     0          
H3ZB     H      0.677100000000     0.266100000000     0.500000000000     0          
O2LC     O      0.558600000000     0.109100000000     0.500000000000     0          
C2LC     C      0.617600000000     0.168300000000     0.500000000000     0          
H1LC     H      0.589400000000     0.175500000000     0.500000000000     0          
C5LC     C      0.645700000000     0.197700000000     0.500000000000     0          
H2LC     H      0.637100000000     0.225500000000     0.500000000000     0          
C7LC     C      0.760300000000     0.205600000000     0.500000000000     0          
H3LC     H      0.766100000000     0.177100000000     0.500000000000     0          
Zr1DC    Zr     0.500000000000     0.075850000000     0.500000000000     0          
C1D      C      0.096600000000     0.403400000000     0.500000000000     0          
C2D      C      0.117600000000     0.331700000000     0.500000000000     0          
H1D      H      0.089400000000     0.324500000000     0.500000000000     0          
C3D      C      0.128400000000     0.371600000000     0.500000000000     0          
C4D      C      0.188500000000     0.311500000000     0.500000000000     0          
C5D      C      0.145700000000     0.302300000000     0.500000000000     0          
H2D      H      0.137100000000     0.274500000000     0.500000000000     0          
C6D      C      0.221500000000     0.278500000000     0.500000000000     0          
C7D      C      0.260300000000     0.294400000000     0.500000000000     0          
H3D      H      0.266100000000     0.322900000000     0.500000000000     0          
C2P      C      0.168300000000     0.382400000000     0.500000000000     0          
H1P      H      0.175500000000     0.410600000000     0.500000000000     0          
C5P      C      0.197700000000     0.354300000000     0.500000000000     0          
H2P      H      0.225500000000     0.362900000000     0.500000000000     0          
C7P      C      0.205600000000     0.239700000000     0.500000000000     0          
H3P      H      0.177100000000     0.233900000000     0.500000000000     0          
O2ZB     O      0.441400000000     0.109100000000     0.500000000000     0          
C1ZB     C      0.403400000000     0.096600000000     0.500000000000     0          
C2ZB     C      0.382400000000     0.168300000000     0.500000000000     0          
H1ZB     H      0.410600000000     0.175500000000     0.500000000000     0          
C3ZB     C      0.371600000000     0.128400000000     0.500000000000     0          
C4ZB     C      0.311500000000     0.188500000000     0.500000000000     0          
C5ZB     C      0.354300000000     0.197700000000     0.500000000000     0          
H2ZB     H      0.362900000000     0.225500000000     0.500000000000     0          
C6ZB     C      0.278500000000     0.221500000000     0.500000000000     0          
C7ZB     C      0.239700000000     0.205600000000     0.500000000000     0          
H3ZB     H      0.233900000000     0.177100000000     0.500000000000     0          
O2LC     O      0.390900000000     0.058600000000     0.500000000000     0          
C2LC     C      0.331700000000     0.117600000000     0.500000000000     0          
H1LC     H      0.324500000000     0.089400000000     0.500000000000     0          
C5LC     C      0.302300000000     0.145700000000     0.500000000000     0          
H2LC     H      0.274500000000     0.137100000000     0.500000000000     0          
C7LC     C      0.294400000000     0.260300000000     0.500000000000     0          
H3LC     H      0.322900000000     0.266100000000     0.500000000000     0          
O2       O      0.058600000000     0.500000000000     0.390900000000     0          
C1       C      0.096600000000     0.500000000000     0.403400000000     0          
C2       C      0.117600000000     0.500000000000     0.331700000000     0          
H1       H      0.089400000000     0.500000000000     0.324500000000     0          
C3       C      0.128400000000     0.500000000000     0.371600000000     0          
C4       C      0.188500000000     0.500000000000     0.311500000000     0          
C5       C      0.145700000000     0.500000000000     0.302300000000     0          
H2       H      0.137100000000     0.500000000000     0.274500000000     0          
C6       C      0.221500000000     0.500000000000     0.278500000000     0          
C7       C      0.260300000000     0.500000000000     0.294400000000     0          
H3       H      0.266100000000     0.500000000000     0.322900000000     0          
C2U      C      0.168300000000     0.500000000000     0.382400000000     0          
H1U      H      0.175500000000     0.500000000000     0.410600000000     0          
C5U      C      0.197700000000     0.500000000000     0.354300000000     0          
H2U      H      0.225500000000     0.500000000000     0.362900000000     0          
C7U      C      0.205600000000     0.500000000000     0.239700000000     0          
H3U      H      0.177100000000     0.500000000000     0.233900000000     0          
O2XA     O      0.441400000000     0.500000000000     0.109100000000     0          
C1XA     C      0.403400000000     0.500000000000     0.096600000000     0          
C2XA     C      0.382400000000     0.500000000000     0.168300000000     0          
H1XA     H      0.410600000000     0.500000000000     0.175500000000     0          
C3XA     C      0.371600000000     0.500000000000     0.128400000000     0          
C4XA     C      0.311500000000     0.500000000000     0.188500000000     0          
C5XA     C      0.354300000000     0.500000000000     0.197700000000     0          
H2XA     H      0.362900000000     0.500000000000     0.225500000000     0          
C6XA     C      0.278500000000     0.500000000000     0.221500000000     0          
C7XA     C      0.239700000000     0.500000000000     0.205600000000     0          
H3XA     H      0.233900000000     0.500000000000     0.177100000000     0          
O2SB     O      0.390900000000     0.500000000000     0.058600000000     0          
C2SB     C      0.331700000000     0.500000000000     0.117600000000     0          
H1SB     H      0.324500000000     0.500000000000     0.089400000000     0          
C5SB     C      0.302300000000     0.500000000000     0.145700000000     0          
H2SB     H      0.274500000000     0.500000000000     0.137100000000     0          
C7SB     C      0.294400000000     0.500000000000     0.260300000000     0          
H3SB     H      0.322900000000     0.500000000000     0.266100000000     0          
O2A      O      0.941400000000     0.500000000000     0.390900000000     0          
C1A      C      0.903400000000     0.500000000000     0.403400000000     0          
C2A      C      0.882400000000     0.500000000000     0.331700000000     0          
H1A      H      0.910600000000     0.500000000000     0.324500000000     0          
C3A      C      0.871600000000     0.500000000000     0.371600000000     0          
C4A      C      0.811500000000     0.500000000000     0.311500000000     0          
C5A      C      0.854300000000     0.500000000000     0.302300000000     0          
H2A      H      0.862900000000     0.500000000000     0.274500000000     0          
C6A      C      0.778500000000     0.500000000000     0.278500000000     0          
C7A      C      0.739700000000     0.500000000000     0.294400000000     0          
H3A      H      0.733900000000     0.500000000000     0.322900000000     0          
C2V      C      0.831700000000     0.500000000000     0.382400000000     0          
H1V      H      0.824500000000     0.500000000000     0.410600000000     0          
C5V      C      0.802300000000     0.500000000000     0.354300000000     0          
H2V      H      0.774500000000     0.500000000000     0.362900000000     0          
C7V      C      0.794400000000     0.500000000000     0.239700000000     0          
H3V      H      0.822900000000     0.500000000000     0.233900000000     0          
O2YA     O      0.558600000000     0.500000000000     0.109100000000     0          
C1YA     C      0.596600000000     0.500000000000     0.096600000000     0          
C2YA     C      0.617600000000     0.500000000000     0.168300000000     0          
H1YA     H      0.589400000000     0.500000000000     0.175500000000     0          
C3YA     C      0.628400000000     0.500000000000     0.128400000000     0          
C4YA     C      0.688500000000     0.500000000000     0.188500000000     0          
C5YA     C      0.645700000000     0.500000000000     0.197700000000     0          
H2YA     H      0.637100000000     0.500000000000     0.225500000000     0          
C6YA     C      0.721500000000     0.500000000000     0.221500000000     0          
C7YA     C      0.760300000000     0.500000000000     0.205600000000     0          
H3YA     H      0.766100000000     0.500000000000     0.177100000000     0          
O2PB     O      0.609100000000     0.500000000000     0.058600000000     0          
C2PB     C      0.668300000000     0.500000000000     0.117600000000     0          
H1PB     H      0.675500000000     0.500000000000     0.089400000000     0          
C5PB     C      0.697700000000     0.500000000000     0.145700000000     0          
H2PB     H      0.725500000000     0.500000000000     0.137100000000     0          
C7PB     C      0.705600000000     0.500000000000     0.260300000000     0          
H3PB     H      0.677100000000     0.500000000000     0.266100000000     0          
Zr1XA    Zr     0.500000000000     0.500000000000     0.075850000000     0          
O1       O      0.537000000000     0.037000000000     0.537000000000     0          
O1A      O      0.463000000000     0.963000000000     0.537000000000     0          
O1C      O      0.537000000000     0.963000000000     0.463000000000     0          
O1B      O      0.463000000000     0.037000000000     0.463000000000     0          
O1L      O      0.537000000000     0.037000000000     0.463000000000     0          
O1M      O      0.463000000000     0.963000000000     0.463000000000     0          
O1N      O      0.537000000000     0.963000000000     0.537000000000     0          
O1O      O      0.463000000000     0.037000000000     0.537000000000     0          
O2N      O      0.500000000000     0.941400000000     0.609100000000     0          
O2O      O      0.500000000000     0.058600000000     0.609100000000     0          
C1       C      0.500000000000     0.096600000000     0.596600000000     0          
C2       C      0.500000000000     0.117600000000     0.668300000000     0          
H1       H      0.500000000000     0.089400000000     0.675500000000     0          
C3       C      0.500000000000     0.128400000000     0.628400000000     0          
C4       C      0.500000000000     0.188500000000     0.688500000000     0          
C5       C      0.500000000000     0.145700000000     0.697700000000     0          
H2       H      0.500000000000     0.137100000000     0.725500000000     0          
C6       C      0.500000000000     0.221500000000     0.721500000000     0          
C7       C      0.500000000000     0.260300000000     0.705600000000     0          
H3       H      0.500000000000     0.266100000000     0.677100000000     0          
O2U      O      0.500000000000     0.109100000000     0.558600000000     0          
C2U      C      0.500000000000     0.168300000000     0.617600000000     0          
H1U      H      0.500000000000     0.175500000000     0.589400000000     0          
C5U      C      0.500000000000     0.197700000000     0.645700000000     0          
H2U      H      0.500000000000     0.225500000000     0.637100000000     0          
C7U      C      0.500000000000     0.205600000000     0.760300000000     0          
H3U      H      0.500000000000     0.177100000000     0.766100000000     0          
O2XA     O      0.500000000000     0.441400000000     0.890900000000     0          
C1XA     C      0.500000000000     0.403400000000     0.903400000000     0          
C2XA     C      0.500000000000     0.382400000000     0.831700000000     0          
H1XA     H      0.500000000000     0.410600000000     0.824500000000     0          
C3XA     C      0.500000000000     0.371600000000     0.871600000000     0          
C4XA     C      0.500000000000     0.311500000000     0.811500000000     0          
C5XA     C      0.500000000000     0.354300000000     0.802300000000     0          
H2XA     H      0.500000000000     0.362900000000     0.774500000000     0          
C6XA     C      0.500000000000     0.278500000000     0.778500000000     0          
C7XA     C      0.500000000000     0.239700000000     0.794400000000     0          
H3XA     H      0.500000000000     0.233900000000     0.822900000000     0          
O2SB     O      0.500000000000     0.390900000000     0.941400000000     0          
C2SB     C      0.500000000000     0.331700000000     0.882400000000     0          
H1SB     H      0.500000000000     0.324500000000     0.910600000000     0          
C5SB     C      0.500000000000     0.302300000000     0.854300000000     0          
H2SB     H      0.500000000000     0.274500000000     0.862900000000     0          
C7SB     C      0.500000000000     0.294400000000     0.739700000000     0          
H3SB     H      0.500000000000     0.322900000000     0.733900000000     0          
C1A      C      0.500000000000     0.903400000000     0.596600000000     0          
C2A      C      0.500000000000     0.882400000000     0.668300000000     0          
H1A      H      0.500000000000     0.910600000000     0.675500000000     0          
C3A      C      0.500000000000     0.871600000000     0.628400000000     0          
C4A      C      0.500000000000     0.811500000000     0.688500000000     0          
C5A      C      0.500000000000     0.854300000000     0.697700000000     0          
H2A      H      0.500000000000     0.862900000000     0.725500000000     0          
C6A      C      0.500000000000     0.778500000000     0.721500000000     0          
C7A      C      0.500000000000     0.739700000000     0.705600000000     0          
H3A      H      0.500000000000     0.733900000000     0.677100000000     0          
O2V      O      0.500000000000     0.890900000000     0.558600000000     0          
C2V      C      0.500000000000     0.831700000000     0.617600000000     0          
H1V      H      0.500000000000     0.824500000000     0.589400000000     0          
C5V      C      0.500000000000     0.802300000000     0.645700000000     0          
H2V      H      0.500000000000     0.774500000000     0.637100000000     0          
C7V      C      0.500000000000     0.794400000000     0.760300000000     0          
H3V      H      0.500000000000     0.822900000000     0.766100000000     0          
O2YA     O      0.500000000000     0.558600000000     0.890900000000     0          
C1YA     C      0.500000000000     0.596600000000     0.903400000000     0          
C2YA     C      0.500000000000     0.617600000000     0.831700000000     0          
H1YA     H      0.500000000000     0.589400000000     0.824500000000     0          
C3YA     C      0.500000000000     0.628400000000     0.871600000000     0          
C4YA     C      0.500000000000     0.688500000000     0.811500000000     0          
C5YA     C      0.500000000000     0.645700000000     0.802300000000     0          
H2YA     H      0.500000000000     0.637100000000     0.774500000000     0          
C6YA     C      0.500000000000     0.721500000000     0.778500000000     0          
C7YA     C      0.500000000000     0.760300000000     0.794400000000     0          
H3YA     H      0.500000000000     0.766100000000     0.822900000000     0          
O2PB     O      0.500000000000     0.609100000000     0.941400000000     0          
C2PB     C      0.500000000000     0.668300000000     0.882400000000     0          
H1PB     H      0.500000000000     0.675500000000     0.910600000000     0          
C5PB     C      0.500000000000     0.697700000000     0.854300000000     0          
H2PB     H      0.500000000000     0.725500000000     0.862900000000     0          
C7PB     C      0.500000000000     0.705600000000     0.739700000000     0          
H3PB     H      0.500000000000     0.677100000000     0.733900000000     0          
O2T      O      0.500000000000     0.109100000000     0.441400000000     0          
O2W      O      0.500000000000     0.890900000000     0.441400000000     0          
O2N      O      0.500000000000     0.058600000000     0.390900000000     0          
O2O      O      0.500000000000     0.941400000000     0.390900000000     0          
C1       C      0.500000000000     0.096600000000     0.403400000000     0          
C2       C      0.500000000000     0.117600000000     0.331700000000     0          
H1       H      0.500000000000     0.089400000000     0.324500000000     0          
C3       C      0.500000000000     0.128400000000     0.371600000000     0          
C4       C      0.500000000000     0.188500000000     0.311500000000     0          
C5       C      0.500000000000     0.145700000000     0.302300000000     0          
H2       H      0.500000000000     0.137100000000     0.274500000000     0          
C6       C      0.500000000000     0.221500000000     0.278500000000     0          
C7       C      0.500000000000     0.260300000000     0.294400000000     0          
H3       H      0.500000000000     0.266100000000     0.322900000000     0          
C2U      C      0.500000000000     0.168300000000     0.382400000000     0          
H1U      H      0.500000000000     0.175500000000     0.410600000000     0          
C5U      C      0.500000000000     0.197700000000     0.354300000000     0          
H2U      H      0.500000000000     0.225500000000     0.362900000000     0          
C7U      C      0.500000000000     0.205600000000     0.239700000000     0          
H3U      H      0.500000000000     0.177100000000     0.233900000000     0          
O2XA     O      0.500000000000     0.441400000000     0.109100000000     0          
C1XA     C      0.500000000000     0.403400000000     0.096600000000     0          
C2XA     C      0.500000000000     0.382400000000     0.168300000000     0          
H1XA     H      0.500000000000     0.410600000000     0.175500000000     0          
C3XA     C      0.500000000000     0.371600000000     0.128400000000     0          
C4XA     C      0.500000000000     0.311500000000     0.188500000000     0          
C5XA     C      0.500000000000     0.354300000000     0.197700000000     0          
H2XA     H      0.500000000000     0.362900000000     0.225500000000     0          
C6XA     C      0.500000000000     0.278500000000     0.221500000000     0          
C7XA     C      0.500000000000     0.239700000000     0.205600000000     0          
H3XA     H      0.500000000000     0.233900000000     0.177100000000     0          
O2SB     O      0.500000000000     0.390900000000     0.058600000000     0          
C2SB     C      0.500000000000     0.331700000000     0.117600000000     0          
H1SB     H      0.500000000000     0.324500000000     0.089400000000     0          
C5SB     C      0.500000000000     0.302300000000     0.145700000000     0          
H2SB     H      0.500000000000     0.274500000000     0.137100000000     0          
C7SB     C      0.500000000000     0.294400000000     0.260300000000     0          
H3SB     H      0.500000000000     0.322900000000     0.266100000000     0          
C1A      C      0.500000000000     0.903400000000     0.403400000000     0          
C2A      C      0.500000000000     0.882400000000     0.331700000000     0          
H1A      H      0.500000000000     0.910600000000     0.324500000000     0          
C3A      C      0.500000000000     0.871600000000     0.371600000000     0          
C4A      C      0.500000000000     0.811500000000     0.311500000000     0          
C5A      C      0.500000000000     0.854300000000     0.302300000000     0          
H2A      H      0.500000000000     0.862900000000     0.274500000000     0          
C6A      C      0.500000000000     0.778500000000     0.278500000000     0          
C7A      C      0.500000000000     0.739700000000     0.294400000000     0          
H3A      H      0.500000000000     0.733900000000     0.322900000000     0          
C2V      C      0.500000000000     0.831700000000     0.382400000000     0          
H1V      H      0.500000000000     0.824500000000     0.410600000000     0          
C5V      C      0.500000000000     0.802300000000     0.354300000000     0          
H2V      H      0.500000000000     0.774500000000     0.362900000000     0          
C7V      C      0.500000000000     0.794400000000     0.239700000000     0          
H3V      H      0.500000000000     0.822900000000     0.233900000000     0          
O2YA     O      0.500000000000     0.558600000000     0.109100000000     0          
C1YA     C      0.500000000000     0.596600000000     0.096600000000     0          
C2YA     C      0.500000000000     0.617600000000     0.168300000000     0          
H1YA     H      0.500000000000     0.589400000000     0.175500000000     0          
C3YA     C      0.500000000000     0.628400000000     0.128400000000     0          
C4YA     C      0.500000000000     0.688500000000     0.188500000000     0          
C5YA     C      0.500000000000     0.645700000000     0.197700000000     0          
H2YA     H      0.500000000000     0.637100000000     0.225500000000     0          
C6YA     C      0.500000000000     0.721500000000     0.221500000000     0          
C7YA     C      0.500000000000     0.760300000000     0.205600000000     0          
H3YA     H      0.500000000000     0.766100000000     0.177100000000     0          
O2PB     O      0.500000000000     0.609100000000     0.058600000000     0          
C2PB     C      0.500000000000     0.668300000000     0.117600000000     0          
H1PB     H      0.500000000000     0.675500000000     0.089400000000     0          
C5PB     C      0.500000000000     0.697700000000     0.145700000000     0          
H2PB     H      0.500000000000     0.725500000000     0.137100000000     0          
C7PB     C      0.500000000000     0.705600000000     0.260300000000     0          
H3PB     H      0.500000000000     0.677100000000     0.266100000000     0          
O1       O      0.537000000000     0.537000000000     0.037000000000     0          
O1A      O      0.463000000000     0.463000000000     0.037000000000     0          
O1C      O      0.537000000000     0.463000000000     0.963000000000     0          
O1B      O      0.463000000000     0.537000000000     0.963000000000     0          
O1L      O      0.537000000000     0.537000000000     0.963000000000     0          
O1M      O      0.463000000000     0.463000000000     0.963000000000     0          
O1N      O      0.537000000000     0.463000000000     0.037000000000     0          
O1O      O      0.463000000000     0.537000000000     0.037000000000     0          


