data_UVUFEX

_audit_creation_method RASPA-1.0
_audit_creation_date 2020-11-2
_audit_author_name 'Rocio Bueno-Perez'

_cell_length_a    32.7767
_cell_length_b    32.7767
_cell_length_c    32.7767
_cell_angle_alpha 90
_cell_angle_beta  90
_cell_angle_gamma 90
_cell_volume      35212.4

_symmetry_cell_setting          triclinic
_symmetry_space_group_name_Hall 'P 1'
_symmetry_space_group_name_H-M  'P 1'
_symmetry_Int_Tables_number     1

_symmetry_equiv_pos_as_xyz 'x,y,z'

loop_
_atom_site_label
_atom_site_type_symbol
_atom_site_fract_x
_atom_site_fract_y
_atom_site_fract_z
_atom_site_charge
C1       C      0.533000000000     0.717000000000     0.251600000000     0          
C2       C      0.467000000000     0.783000000000     0.751600000000     0          
C3       C      0.967000000000     0.717000000000     0.248400000000     0          
C4       C      0.967000000000     0.217000000000     0.748400000000     0          
C5       C      0.467000000000     0.217000000000     0.248400000000     0          
C6       C      0.033000000000     0.283000000000     0.248400000000     0          
C7       C      0.033000000000     0.783000000000     0.748400000000     0          
C8       C      0.533000000000     0.283000000000     0.748400000000     0          
C9       C      0.751600000000     0.033000000000     0.717000000000     0          
C10      C      0.751600000000     0.533000000000     0.217000000000     0          
C11      C      0.251600000000     0.033000000000     0.217000000000     0          
C12      C      0.251600000000     0.533000000000     0.717000000000     0          
C13      C      0.751600000000     0.967000000000     0.283000000000     0          
C14      C      0.751600000000     0.467000000000     0.783000000000     0          
C15      C      0.251600000000     0.967000000000     0.783000000000     0          
C16      C      0.251600000000     0.467000000000     0.283000000000     0          
C17      C      0.717000000000     0.751600000000     0.033000000000     0          
C18      C      0.283000000000     0.251600000000     0.467000000000     0          
C19      C      0.783000000000     0.751600000000     0.467000000000     0          
C20      C      0.717000000000     0.248400000000     0.967000000000     0          
C21      C      0.217000000000     0.748400000000     0.967000000000     0          
C22      C      0.283000000000     0.248400000000     0.033000000000     0          
C23      C      0.283000000000     0.748400000000     0.533000000000     0          
C24      C      0.783000000000     0.248400000000     0.533000000000     0          
C25      C      0.717000000000     0.033000000000     0.248400000000     0          
C26      C      0.717000000000     0.533000000000     0.748400000000     0          
C27      C      0.217000000000     0.033000000000     0.748400000000     0          
C28      C      0.217000000000     0.533000000000     0.248400000000     0          
C29      C      0.717000000000     0.967000000000     0.751600000000     0          
C30      C      0.717000000000     0.467000000000     0.251600000000     0          
C31      C      0.217000000000     0.967000000000     0.251600000000     0          
C32      C      0.217000000000     0.467000000000     0.751600000000     0          
C33      C      0.033000000000     0.751600000000     0.283000000000     0          
C34      C      0.033000000000     0.251600000000     0.783000000000     0          
C35      C      0.533000000000     0.251600000000     0.283000000000     0          
C36      C      0.467000000000     0.751600000000     0.217000000000     0          
C37      C      0.967000000000     0.248400000000     0.283000000000     0          
C38      C      0.967000000000     0.748400000000     0.783000000000     0          
C39      C      0.467000000000     0.248400000000     0.783000000000     0          
C40      C      0.533000000000     0.748400000000     0.717000000000     0          
C41      C      0.751600000000     0.717000000000     0.967000000000     0          
C42      C      0.751600000000     0.283000000000     0.033000000000     0          
C43      C      0.251600000000     0.783000000000     0.033000000000     0          
C44      C      0.248400000000     0.217000000000     0.533000000000     0          
C45      C      0.748400000000     0.717000000000     0.533000000000     0          
C46      C      0.248400000000     0.283000000000     0.967000000000     0          
C47      C      0.248400000000     0.783000000000     0.467000000000     0          
C48      C      0.748400000000     0.283000000000     0.467000000000     0          
C49      C      0.467000000000     0.783000000000     0.248400000000     0          
C50      C      0.533000000000     0.717000000000     0.748400000000     0          
C51      C      0.033000000000     0.283000000000     0.751600000000     0          
C52      C      0.033000000000     0.783000000000     0.251600000000     0          
C53      C      0.533000000000     0.283000000000     0.251600000000     0          
C54      C      0.967000000000     0.717000000000     0.751600000000     0          
C55      C      0.967000000000     0.217000000000     0.251600000000     0          
C56      C      0.467000000000     0.217000000000     0.751600000000     0          
C57      C      0.248400000000     0.967000000000     0.283000000000     0          
C58      C      0.248400000000     0.467000000000     0.783000000000     0          
C59      C      0.748400000000     0.967000000000     0.783000000000     0          
C60      C      0.748400000000     0.467000000000     0.283000000000     0          
C61      C      0.248400000000     0.033000000000     0.717000000000     0          
C62      C      0.248400000000     0.533000000000     0.217000000000     0          
C63      C      0.748400000000     0.033000000000     0.217000000000     0          
C64      C      0.748400000000     0.533000000000     0.717000000000     0          
C65      C      0.783000000000     0.748400000000     0.967000000000     0          
C66      C      0.717000000000     0.748400000000     0.533000000000     0          
C67      C      0.217000000000     0.248400000000     0.533000000000     0          
C68      C      0.283000000000     0.751600000000     0.033000000000     0          
C69      C      0.783000000000     0.251600000000     0.033000000000     0          
C70      C      0.717000000000     0.251600000000     0.467000000000     0          
C71      C      0.217000000000     0.751600000000     0.467000000000     0          
C72      C      0.217000000000     0.251600000000     0.967000000000     0          
C73      C      0.283000000000     0.967000000000     0.751600000000     0          
C74      C      0.283000000000     0.467000000000     0.251600000000     0          
C75      C      0.783000000000     0.967000000000     0.251600000000     0          
C76      C      0.783000000000     0.467000000000     0.751600000000     0          
C77      C      0.283000000000     0.033000000000     0.248400000000     0          
C78      C      0.283000000000     0.533000000000     0.748400000000     0          
C79      C      0.783000000000     0.033000000000     0.748400000000     0          
C80      C      0.783000000000     0.533000000000     0.248400000000     0          
C81      C      0.967000000000     0.248400000000     0.717000000000     0          
C82      C      0.967000000000     0.748400000000     0.217000000000     0          
C83      C      0.467000000000     0.248400000000     0.217000000000     0          
C84      C      0.533000000000     0.748400000000     0.283000000000     0          
C85      C      0.033000000000     0.751600000000     0.717000000000     0          
C86      C      0.033000000000     0.251600000000     0.217000000000     0          
C87      C      0.533000000000     0.251600000000     0.717000000000     0          
C88      C      0.467000000000     0.751600000000     0.783000000000     0          
C89      C      0.748400000000     0.783000000000     0.033000000000     0          
C90      C      0.248400000000     0.717000000000     0.967000000000     0          
C91      C      0.748400000000     0.217000000000     0.967000000000     0          
C92      C      0.751600000000     0.783000000000     0.467000000000     0          
C93      C      0.251600000000     0.283000000000     0.467000000000     0          
C94      C      0.751600000000     0.217000000000     0.533000000000     0          
C95      C      0.251600000000     0.717000000000     0.533000000000     0          
C96      C      0.251600000000     0.217000000000     0.033000000000     0          
Zr97     Zr     0.000000000000     0.575500000000     0.500000000000     0          
Zr98     Zr     0.000000000000     0.075500000000     0.000000000000     0          
Zr99     Zr     0.000000000000     0.424500000000     0.500000000000     0          
Zr100    Zr     0.000000000000     0.924500000000     0.000000000000     0          
Zr101    Zr     0.500000000000     0.000000000000     0.575500000000     0          
Zr102    Zr     0.500000000000     0.500000000000     0.075500000000     0          
Zr103    Zr     0.000000000000     0.000000000000     0.075500000000     0          
Zr104    Zr     0.500000000000     0.000000000000     0.424500000000     0          
Zr105    Zr     0.500000000000     0.500000000000     0.924500000000     0          
Zr106    Zr     0.000000000000     0.000000000000     0.924500000000     0          
Zr107    Zr     0.575500000000     0.500000000000     0.000000000000     0          
Zr108    Zr     0.575500000000     0.000000000000     0.500000000000     0          
Zr109    Zr     0.075500000000     0.500000000000     0.500000000000     0          
Zr110    Zr     0.424500000000     0.500000000000     0.000000000000     0          
Zr111    Zr     0.424500000000     0.000000000000     0.500000000000     0          
Zr112    Zr     0.924500000000     0.500000000000     0.500000000000     0          
Zr113    Zr     0.075500000000     0.000000000000     0.000000000000     0          
Zr114    Zr     0.924500000000     0.000000000000     0.000000000000     0          
Zr115    Zr     0.000000000000     0.500000000000     0.424500000000     0          
Zr116    Zr     0.000000000000     0.500000000000     0.575500000000     0          
Zr117    Zr     0.500000000000     0.575500000000     0.000000000000     0          
Zr118    Zr     0.500000000000     0.075500000000     0.500000000000     0          
Zr119    Zr     0.500000000000     0.424500000000     0.000000000000     0          
Zr120    Zr     0.500000000000     0.924500000000     0.500000000000     0          
O121     O      0.962860000000     0.537140000000     0.537140000000     0          
O122     O      0.962860000000     0.037140000000     0.037140000000     0          
O123     O      0.462860000000     0.537140000000     0.037140000000     0          
O124     O      0.462860000000     0.037140000000     0.537140000000     0          
O125     O      0.037140000000     0.462860000000     0.537140000000     0          
O126     O      0.037140000000     0.962860000000     0.037140000000     0          
O127     O      0.037140000000     0.537140000000     0.462860000000     0          
O128     O      0.037140000000     0.037140000000     0.962860000000     0          
O129     O      0.962860000000     0.462860000000     0.462860000000     0          
O130     O      0.962860000000     0.962860000000     0.962860000000     0          
O131     O      0.537140000000     0.962860000000     0.537140000000     0          
O132     O      0.537140000000     0.462860000000     0.037140000000     0          
O133     O      0.537140000000     0.037140000000     0.462860000000     0          
O134     O      0.462860000000     0.962860000000     0.462860000000     0          
O135     O      0.537140000000     0.537140000000     0.962860000000     0          
O136     O      0.462860000000     0.462860000000     0.962860000000     0          
O137     O      0.537140000000     0.962860000000     0.462860000000     0          
O138     O      0.037140000000     0.462860000000     0.462860000000     0          
O139     O      0.462860000000     0.037140000000     0.462860000000     0          
O140     O      0.537140000000     0.037140000000     0.537140000000     0          
O141     O      0.037140000000     0.037140000000     0.037140000000     0          
O142     O      0.462860000000     0.962860000000     0.537140000000     0          
O143     O      0.462860000000     0.462860000000     0.037140000000     0          
O144     O      0.962860000000     0.537140000000     0.462860000000     0          
O145     O      0.962860000000     0.037140000000     0.962860000000     0          
O146     O      0.037140000000     0.537140000000     0.537140000000     0          
O147     O      0.037140000000     0.962860000000     0.962860000000     0          
O148     O      0.962860000000     0.462860000000     0.537140000000     0          
O149     O      0.962860000000     0.962860000000     0.037140000000     0          
O150     O      0.537140000000     0.537140000000     0.037140000000     0          
O151     O      0.537140000000     0.462860000000     0.962860000000     0          
O152     O      0.462860000000     0.537140000000     0.962860000000     0          
O153     O      0.000000000000     0.608320000000     0.559300000000     0          
C154     C      0.000000000000     0.668080000000     0.616960000000     0          
H155     H      0.000000000000     0.675500000000     0.589600000000     0          
C156     C      0.000000000000     0.697990000000     0.647300000000     0          
H157     H      0.000000000000     0.725400000000     0.639800000000     0          
O158     O      0.000000000000     0.108320000000     0.059300000000     0          
C159     C      0.000000000000     0.168080000000     0.116960000000     0          
H160     H      0.000000000000     0.175500000000     0.089600000000     0          
C161     C      0.000000000000     0.197990000000     0.147300000000     0          
H162     H      0.000000000000     0.225400000000     0.139800000000     0          
O163     O      0.500000000000     0.608320000000     0.059300000000     0          
C164     C      0.500000000000     0.668080000000     0.116960000000     0          
H165     H      0.500000000000     0.675500000000     0.089600000000     0          
C166     C      0.500000000000     0.697990000000     0.147300000000     0          
H167     H      0.500000000000     0.725400000000     0.139800000000     0          
O168     O      0.500000000000     0.108320000000     0.559300000000     0          
C169     C      0.500000000000     0.168080000000     0.616960000000     0          
H170     H      0.500000000000     0.175500000000     0.589600000000     0          
C171     C      0.500000000000     0.197990000000     0.647300000000     0          
H172     H      0.500000000000     0.225400000000     0.639800000000     0          
O173     O      0.000000000000     0.391680000000     0.559300000000     0          
C174     C      0.000000000000     0.331920000000     0.616960000000     0          
H175     H      0.000000000000     0.324500000000     0.589600000000     0          
C176     C      0.000000000000     0.302010000000     0.647300000000     0          
H177     H      0.000000000000     0.274600000000     0.639800000000     0          
O178     O      0.000000000000     0.891680000000     0.059300000000     0          
C179     C      0.000000000000     0.831920000000     0.116960000000     0          
H180     H      0.000000000000     0.824500000000     0.089600000000     0          
C181     C      0.000000000000     0.802010000000     0.147300000000     0          
H182     H      0.000000000000     0.774600000000     0.139800000000     0          
O183     O      0.500000000000     0.391680000000     0.059300000000     0          
C184     C      0.500000000000     0.331920000000     0.116960000000     0          
H185     H      0.500000000000     0.324500000000     0.089600000000     0          
C186     C      0.500000000000     0.302010000000     0.147300000000     0          
H187     H      0.500000000000     0.274600000000     0.139800000000     0          
O188     O      0.500000000000     0.891680000000     0.559300000000     0          
C189     C      0.500000000000     0.831920000000     0.616960000000     0          
H190     H      0.500000000000     0.824500000000     0.589600000000     0          
C191     C      0.500000000000     0.802010000000     0.647300000000     0          
H192     H      0.500000000000     0.774600000000     0.639800000000     0          
O193     O      0.000000000000     0.608320000000     0.440700000000     0          
C194     C      0.000000000000     0.668080000000     0.383040000000     0          
H195     H      0.000000000000     0.675500000000     0.410400000000     0          
C196     C      0.000000000000     0.697990000000     0.352700000000     0          
H197     H      0.000000000000     0.725400000000     0.360200000000     0          
O198     O      0.000000000000     0.108320000000     0.940700000000     0          
C199     C      0.000000000000     0.168080000000     0.883040000000     0          
H200     H      0.000000000000     0.175500000000     0.910400000000     0          
C201     C      0.000000000000     0.197990000000     0.852700000000     0          
H202     H      0.000000000000     0.225400000000     0.860200000000     0          
O203     O      0.500000000000     0.608320000000     0.940700000000     0          
C204     C      0.500000000000     0.668080000000     0.883040000000     0          
H205     H      0.500000000000     0.675500000000     0.910400000000     0          
C206     C      0.500000000000     0.697990000000     0.852700000000     0          
H207     H      0.500000000000     0.725400000000     0.860200000000     0          
O208     O      0.500000000000     0.108320000000     0.440700000000     0          
C209     C      0.500000000000     0.168080000000     0.383040000000     0          
H210     H      0.500000000000     0.175500000000     0.410400000000     0          
C211     C      0.500000000000     0.197990000000     0.352700000000     0          
H212     H      0.500000000000     0.225400000000     0.360200000000     0          
O213     O      0.000000000000     0.391680000000     0.440700000000     0          
C214     C      0.000000000000     0.331920000000     0.383040000000     0          
H215     H      0.000000000000     0.324500000000     0.410400000000     0          
C216     C      0.000000000000     0.302010000000     0.352700000000     0          
H217     H      0.000000000000     0.274600000000     0.360200000000     0          
O218     O      0.000000000000     0.891680000000     0.940700000000     0          
C219     C      0.000000000000     0.831920000000     0.883040000000     0          
H220     H      0.000000000000     0.824500000000     0.910400000000     0          
C221     C      0.000000000000     0.802010000000     0.852700000000     0          
H222     H      0.000000000000     0.774600000000     0.860200000000     0          
O223     O      0.500000000000     0.391680000000     0.940700000000     0          
C224     C      0.500000000000     0.331920000000     0.883040000000     0          
H225     H      0.500000000000     0.324500000000     0.910400000000     0          
C226     C      0.500000000000     0.302010000000     0.852700000000     0          
H227     H      0.500000000000     0.274600000000     0.860200000000     0          
O228     O      0.500000000000     0.891680000000     0.440700000000     0          
C229     C      0.500000000000     0.831920000000     0.383040000000     0          
H230     H      0.500000000000     0.824500000000     0.410400000000     0          
C231     C      0.500000000000     0.802010000000     0.352700000000     0          
H232     H      0.500000000000     0.774600000000     0.360200000000     0          
O233     O      0.559300000000     0.000000000000     0.608320000000     0          
C234     C      0.616960000000     0.000000000000     0.668080000000     0          
H235     H      0.589600000000     0.000000000000     0.675500000000     0          
C236     C      0.647300000000     0.000000000000     0.697990000000     0          
H237     H      0.639800000000     0.000000000000     0.725400000000     0          
O238     O      0.559300000000     0.500000000000     0.108320000000     0          
C239     C      0.616960000000     0.500000000000     0.168080000000     0          
H240     H      0.589600000000     0.500000000000     0.175500000000     0          
C241     C      0.647300000000     0.500000000000     0.197990000000     0          
H242     H      0.639800000000     0.500000000000     0.225400000000     0          
O243     O      0.059300000000     0.000000000000     0.108320000000     0          
C244     C      0.116960000000     0.000000000000     0.168080000000     0          
H245     H      0.089600000000     0.000000000000     0.175500000000     0          
C246     C      0.147300000000     0.000000000000     0.197990000000     0          
H247     H      0.139800000000     0.000000000000     0.225400000000     0          
O248     O      0.059300000000     0.500000000000     0.608320000000     0          
C249     C      0.116960000000     0.500000000000     0.668080000000     0          
H250     H      0.089600000000     0.500000000000     0.675500000000     0          
C251     C      0.147300000000     0.500000000000     0.697990000000     0          
H252     H      0.139800000000     0.500000000000     0.725400000000     0          
O253     O      0.559300000000     0.000000000000     0.391680000000     0          
C254     C      0.616960000000     0.000000000000     0.331920000000     0          
H255     H      0.589600000000     0.000000000000     0.324500000000     0          
C256     C      0.647300000000     0.000000000000     0.302010000000     0          
H257     H      0.639800000000     0.000000000000     0.274600000000     0          
O258     O      0.559300000000     0.500000000000     0.891680000000     0          
C259     C      0.616960000000     0.500000000000     0.831920000000     0          
H260     H      0.589600000000     0.500000000000     0.824500000000     0          
C261     C      0.647300000000     0.500000000000     0.802010000000     0          
H262     H      0.639800000000     0.500000000000     0.774600000000     0          
O263     O      0.059300000000     0.000000000000     0.891680000000     0          
C264     C      0.116960000000     0.000000000000     0.831920000000     0          
H265     H      0.089600000000     0.000000000000     0.824500000000     0          
C266     C      0.147300000000     0.000000000000     0.802010000000     0          
H267     H      0.139800000000     0.000000000000     0.774600000000     0          
O268     O      0.059300000000     0.500000000000     0.391680000000     0          
C269     C      0.116960000000     0.500000000000     0.331920000000     0          
H270     H      0.089600000000     0.500000000000     0.324500000000     0          
C271     C      0.147300000000     0.500000000000     0.302010000000     0          
H272     H      0.139800000000     0.500000000000     0.274600000000     0          
O273     O      0.440700000000     0.000000000000     0.608320000000     0          
C274     C      0.383040000000     0.000000000000     0.668080000000     0          
H275     H      0.410400000000     0.000000000000     0.675500000000     0          
C276     C      0.352700000000     0.000000000000     0.697990000000     0          
H277     H      0.360200000000     0.000000000000     0.725400000000     0          
O278     O      0.440700000000     0.500000000000     0.108320000000     0          
C279     C      0.383040000000     0.500000000000     0.168080000000     0          
H280     H      0.410400000000     0.500000000000     0.175500000000     0          
C281     C      0.352700000000     0.500000000000     0.197990000000     0          
H282     H      0.360200000000     0.500000000000     0.225400000000     0          
O283     O      0.940700000000     0.000000000000     0.108320000000     0          
C284     C      0.883040000000     0.000000000000     0.168080000000     0          
H285     H      0.910400000000     0.000000000000     0.175500000000     0          
C286     C      0.852700000000     0.000000000000     0.197990000000     0          
H287     H      0.860200000000     0.000000000000     0.225400000000     0          
O288     O      0.940700000000     0.500000000000     0.608320000000     0          
C289     C      0.883040000000     0.500000000000     0.668080000000     0          
H290     H      0.910400000000     0.500000000000     0.675500000000     0          
C291     C      0.852700000000     0.500000000000     0.697990000000     0          
H292     H      0.860200000000     0.500000000000     0.725400000000     0          
O293     O      0.440700000000     0.000000000000     0.391680000000     0          
C294     C      0.383040000000     0.000000000000     0.331920000000     0          
H295     H      0.410400000000     0.000000000000     0.324500000000     0          
C296     C      0.352700000000     0.000000000000     0.302010000000     0          
H297     H      0.360200000000     0.000000000000     0.274600000000     0          
O298     O      0.440700000000     0.500000000000     0.891680000000     0          
C299     C      0.383040000000     0.500000000000     0.831920000000     0          
H300     H      0.410400000000     0.500000000000     0.824500000000     0          
C301     C      0.352700000000     0.500000000000     0.802010000000     0          
H302     H      0.360200000000     0.500000000000     0.774600000000     0          
O303     O      0.940700000000     0.000000000000     0.891680000000     0          
C304     C      0.883040000000     0.000000000000     0.831920000000     0          
H305     H      0.910400000000     0.000000000000     0.824500000000     0          
C306     C      0.852700000000     0.000000000000     0.802010000000     0          
H307     H      0.860200000000     0.000000000000     0.774600000000     0          
O308     O      0.940700000000     0.500000000000     0.391680000000     0          
C309     C      0.883040000000     0.500000000000     0.331920000000     0          
H310     H      0.910400000000     0.500000000000     0.324500000000     0          
C311     C      0.852700000000     0.500000000000     0.302010000000     0          
H312     H      0.860200000000     0.500000000000     0.274600000000     0          
O313     O      0.608320000000     0.559300000000     0.000000000000     0          
C314     C      0.668080000000     0.616960000000     0.000000000000     0          
H315     H      0.675500000000     0.589600000000     0.000000000000     0          
C316     C      0.697990000000     0.647300000000     0.000000000000     0          
H317     H      0.725400000000     0.639800000000     0.000000000000     0          
O318     O      0.608320000000     0.059300000000     0.500000000000     0          
C319     C      0.668080000000     0.116960000000     0.500000000000     0          
H320     H      0.675500000000     0.089600000000     0.500000000000     0          
C321     C      0.697990000000     0.147300000000     0.500000000000     0          
H322     H      0.725400000000     0.139800000000     0.500000000000     0          
O323     O      0.108320000000     0.559300000000     0.500000000000     0          
C324     C      0.168080000000     0.616960000000     0.500000000000     0          
H325     H      0.175500000000     0.589600000000     0.500000000000     0          
C326     C      0.197990000000     0.647300000000     0.500000000000     0          
H327     H      0.225400000000     0.639800000000     0.500000000000     0          
O328     O      0.108320000000     0.059300000000     0.000000000000     0          
C329     C      0.168080000000     0.116960000000     0.000000000000     0          
H330     H      0.175500000000     0.089600000000     0.000000000000     0          
C331     C      0.197990000000     0.147300000000     0.000000000000     0          
H332     H      0.225400000000     0.139800000000     0.000000000000     0          
O333     O      0.391680000000     0.559300000000     0.000000000000     0          
C334     C      0.331920000000     0.616960000000     0.000000000000     0          
H335     H      0.324500000000     0.589600000000     0.000000000000     0          
C336     C      0.302010000000     0.647300000000     0.000000000000     0          
H337     H      0.274600000000     0.639800000000     0.000000000000     0          
O338     O      0.391680000000     0.059300000000     0.500000000000     0          
C339     C      0.331920000000     0.116960000000     0.500000000000     0          
H340     H      0.324500000000     0.089600000000     0.500000000000     0          
C341     C      0.302010000000     0.147300000000     0.500000000000     0          
H342     H      0.274600000000     0.139800000000     0.500000000000     0          
O343     O      0.891680000000     0.559300000000     0.500000000000     0          
C344     C      0.831920000000     0.616960000000     0.500000000000     0          
H345     H      0.824500000000     0.589600000000     0.500000000000     0          
C346     C      0.802010000000     0.647300000000     0.500000000000     0          
H347     H      0.774600000000     0.639800000000     0.500000000000     0          
O348     O      0.891680000000     0.059300000000     0.000000000000     0          
C349     C      0.831920000000     0.116960000000     0.000000000000     0          
H350     H      0.824500000000     0.089600000000     0.000000000000     0          
C351     C      0.802010000000     0.147300000000     0.000000000000     0          
H352     H      0.774600000000     0.139800000000     0.000000000000     0          
O353     O      0.608320000000     0.440700000000     0.000000000000     0          
C354     C      0.668080000000     0.383040000000     0.000000000000     0          
H355     H      0.675500000000     0.410400000000     0.000000000000     0          
C356     C      0.697990000000     0.352700000000     0.000000000000     0          
H357     H      0.725400000000     0.360200000000     0.000000000000     0          
O358     O      0.608320000000     0.940700000000     0.500000000000     0          
C359     C      0.668080000000     0.883040000000     0.500000000000     0          
H360     H      0.675500000000     0.910400000000     0.500000000000     0          
C361     C      0.697990000000     0.852700000000     0.500000000000     0          
H362     H      0.725400000000     0.860200000000     0.500000000000     0          
O363     O      0.108320000000     0.440700000000     0.500000000000     0          
C364     C      0.168080000000     0.383040000000     0.500000000000     0          
H365     H      0.175500000000     0.410400000000     0.500000000000     0          
C366     C      0.197990000000     0.352700000000     0.500000000000     0          
H367     H      0.225400000000     0.360200000000     0.500000000000     0          
O368     O      0.108320000000     0.940700000000     0.000000000000     0          
C369     C      0.168080000000     0.883040000000     0.000000000000     0          
H370     H      0.175500000000     0.910400000000     0.000000000000     0          
C371     C      0.197990000000     0.852700000000     0.000000000000     0          
H372     H      0.225400000000     0.860200000000     0.000000000000     0          
O373     O      0.391680000000     0.440700000000     0.000000000000     0          
C374     C      0.331920000000     0.383040000000     0.000000000000     0          
H375     H      0.324500000000     0.410400000000     0.000000000000     0          
C376     C      0.302010000000     0.352700000000     0.000000000000     0          
H377     H      0.274600000000     0.360200000000     0.000000000000     0          
O378     O      0.391680000000     0.940700000000     0.500000000000     0          
C379     C      0.331920000000     0.883040000000     0.500000000000     0          
H380     H      0.324500000000     0.910400000000     0.500000000000     0          
C381     C      0.302010000000     0.852700000000     0.500000000000     0          
H382     H      0.274600000000     0.860200000000     0.500000000000     0          
O383     O      0.891680000000     0.440700000000     0.500000000000     0          
C384     C      0.831920000000     0.383040000000     0.500000000000     0          
H385     H      0.824500000000     0.410400000000     0.500000000000     0          
C386     C      0.802010000000     0.352700000000     0.500000000000     0          
H387     H      0.774600000000     0.360200000000     0.500000000000     0          
O388     O      0.891680000000     0.940700000000     0.000000000000     0          
C389     C      0.831920000000     0.883040000000     0.000000000000     0          
H390     H      0.824500000000     0.910400000000     0.000000000000     0          
C391     C      0.802010000000     0.852700000000     0.000000000000     0          
H392     H      0.774600000000     0.860200000000     0.000000000000     0          
O393     O      0.608320000000     0.000000000000     0.440700000000     0          
C394     C      0.668080000000     0.000000000000     0.383040000000     0          
H395     H      0.675500000000     0.000000000000     0.410400000000     0          
C396     C      0.697990000000     0.000000000000     0.352700000000     0          
H397     H      0.725400000000     0.000000000000     0.360200000000     0          
O398     O      0.608320000000     0.500000000000     0.940700000000     0          
C399     C      0.668080000000     0.500000000000     0.883040000000     0          
H400     H      0.675500000000     0.500000000000     0.910400000000     0          
C401     C      0.697990000000     0.500000000000     0.852700000000     0          
H402     H      0.725400000000     0.500000000000     0.860200000000     0          
O403     O      0.108320000000     0.000000000000     0.940700000000     0          
C404     C      0.168080000000     0.000000000000     0.883040000000     0          
H405     H      0.175500000000     0.000000000000     0.910400000000     0          
C406     C      0.197990000000     0.000000000000     0.852700000000     0          
H407     H      0.225400000000     0.000000000000     0.860200000000     0          
O408     O      0.108320000000     0.500000000000     0.440700000000     0          
C409     C      0.168080000000     0.500000000000     0.383040000000     0          
H410     H      0.175500000000     0.500000000000     0.410400000000     0          
C411     C      0.197990000000     0.500000000000     0.352700000000     0          
H412     H      0.225400000000     0.500000000000     0.360200000000     0          
O413     O      0.391680000000     0.000000000000     0.440700000000     0          
C414     C      0.331920000000     0.000000000000     0.383040000000     0          
H415     H      0.324500000000     0.000000000000     0.410400000000     0          
C416     C      0.302010000000     0.000000000000     0.352700000000     0          
H417     H      0.274600000000     0.000000000000     0.360200000000     0          
O418     O      0.391680000000     0.500000000000     0.940700000000     0          
C419     C      0.331920000000     0.500000000000     0.883040000000     0          
H420     H      0.324500000000     0.500000000000     0.910400000000     0          
C421     C      0.302010000000     0.500000000000     0.852700000000     0          
H422     H      0.274600000000     0.500000000000     0.860200000000     0          
O423     O      0.891680000000     0.000000000000     0.940700000000     0          
C424     C      0.831920000000     0.000000000000     0.883040000000     0          
H425     H      0.824500000000     0.000000000000     0.910400000000     0          
C426     C      0.802010000000     0.000000000000     0.852700000000     0          
H427     H      0.774600000000     0.000000000000     0.860200000000     0          
O428     O      0.891680000000     0.500000000000     0.440700000000     0          
C429     C      0.831920000000     0.500000000000     0.383040000000     0          
H430     H      0.824500000000     0.500000000000     0.410400000000     0          
C431     C      0.802010000000     0.500000000000     0.352700000000     0          
H432     H      0.774600000000     0.500000000000     0.360200000000     0          
O433     O      0.608320000000     0.000000000000     0.559300000000     0          
C434     C      0.668080000000     0.000000000000     0.616960000000     0          
H435     H      0.675500000000     0.000000000000     0.589600000000     0          
C436     C      0.697990000000     0.000000000000     0.647300000000     0          
H437     H      0.725400000000     0.000000000000     0.639800000000     0          
O438     O      0.608320000000     0.500000000000     0.059300000000     0          
C439     C      0.668080000000     0.500000000000     0.116960000000     0          
H440     H      0.675500000000     0.500000000000     0.089600000000     0          
C441     C      0.697990000000     0.500000000000     0.147300000000     0          
H442     H      0.725400000000     0.500000000000     0.139800000000     0          
O443     O      0.108320000000     0.000000000000     0.059300000000     0          
C444     C      0.168080000000     0.000000000000     0.116960000000     0          
H445     H      0.175500000000     0.000000000000     0.089600000000     0          
C446     C      0.197990000000     0.000000000000     0.147300000000     0          
H447     H      0.225400000000     0.000000000000     0.139800000000     0          
O448     O      0.108320000000     0.500000000000     0.559300000000     0          
C449     C      0.168080000000     0.500000000000     0.616960000000     0          
H450     H      0.175500000000     0.500000000000     0.589600000000     0          
C451     C      0.197990000000     0.500000000000     0.647300000000     0          
H452     H      0.225400000000     0.500000000000     0.639800000000     0          
O453     O      0.391680000000     0.000000000000     0.559300000000     0          
C454     C      0.331920000000     0.000000000000     0.616960000000     0          
H455     H      0.324500000000     0.000000000000     0.589600000000     0          
C456     C      0.302010000000     0.000000000000     0.647300000000     0          
H457     H      0.274600000000     0.000000000000     0.639800000000     0          
O458     O      0.391680000000     0.500000000000     0.059300000000     0          
C459     C      0.331920000000     0.500000000000     0.116960000000     0          
H460     H      0.324500000000     0.500000000000     0.089600000000     0          
C461     C      0.302010000000     0.500000000000     0.147300000000     0          
H462     H      0.274600000000     0.500000000000     0.139800000000     0          
O463     O      0.891680000000     0.000000000000     0.059300000000     0          
C464     C      0.831920000000     0.000000000000     0.116960000000     0          
H465     H      0.824500000000     0.000000000000     0.089600000000     0          
C466     C      0.802010000000     0.000000000000     0.147300000000     0          
H467     H      0.774600000000     0.000000000000     0.139800000000     0          
O468     O      0.891680000000     0.500000000000     0.559300000000     0          
C469     C      0.831920000000     0.500000000000     0.616960000000     0          
H470     H      0.824500000000     0.500000000000     0.589600000000     0          
C471     C      0.802010000000     0.500000000000     0.647300000000     0          
H472     H      0.774600000000     0.500000000000     0.639800000000     0          
O473     O      0.000000000000     0.559300000000     0.391680000000     0          
C474     C      0.000000000000     0.616960000000     0.331920000000     0          
H475     H      0.000000000000     0.589600000000     0.324500000000     0          
C476     C      0.000000000000     0.647300000000     0.302010000000     0          
H477     H      0.000000000000     0.639800000000     0.274600000000     0          
O478     O      0.000000000000     0.059300000000     0.891680000000     0          
C479     C      0.000000000000     0.116960000000     0.831920000000     0          
H480     H      0.000000000000     0.089600000000     0.824500000000     0          
C481     C      0.000000000000     0.147300000000     0.802010000000     0          
H482     H      0.000000000000     0.139800000000     0.774600000000     0          
O483     O      0.500000000000     0.559300000000     0.891680000000     0          
C484     C      0.500000000000     0.616960000000     0.831920000000     0          
H485     H      0.500000000000     0.589600000000     0.824500000000     0          
C486     C      0.500000000000     0.647300000000     0.802010000000     0          
H487     H      0.500000000000     0.639800000000     0.774600000000     0          
O488     O      0.500000000000     0.059300000000     0.391680000000     0          
C489     C      0.500000000000     0.116960000000     0.331920000000     0          
H490     H      0.500000000000     0.089600000000     0.324500000000     0          
C491     C      0.500000000000     0.147300000000     0.302010000000     0          
H492     H      0.500000000000     0.139800000000     0.274600000000     0          
O493     O      0.000000000000     0.559300000000     0.608320000000     0          
C494     C      0.000000000000     0.616960000000     0.668080000000     0          
H495     H      0.000000000000     0.589600000000     0.675500000000     0          
C496     C      0.000000000000     0.647300000000     0.697990000000     0          
H497     H      0.000000000000     0.639800000000     0.725400000000     0          
O498     O      0.000000000000     0.059300000000     0.108320000000     0          
C499     C      0.000000000000     0.116960000000     0.168080000000     0          
H500     H      0.000000000000     0.089600000000     0.175500000000     0          
C501     C      0.000000000000     0.147300000000     0.197990000000     0          
H502     H      0.000000000000     0.139800000000     0.225400000000     0          
O503     O      0.500000000000     0.559300000000     0.108320000000     0          
C504     C      0.500000000000     0.616960000000     0.168080000000     0          
H505     H      0.500000000000     0.589600000000     0.175500000000     0          
C506     C      0.500000000000     0.647300000000     0.197990000000     0          
H507     H      0.500000000000     0.639800000000     0.225400000000     0          
O508     O      0.500000000000     0.059300000000     0.608320000000     0          
C509     C      0.500000000000     0.116960000000     0.668080000000     0          
H510     H      0.500000000000     0.089600000000     0.675500000000     0          
C511     C      0.500000000000     0.147300000000     0.697990000000     0          
H512     H      0.500000000000     0.139800000000     0.725400000000     0          
O513     O      0.000000000000     0.440700000000     0.391680000000     0          
C514     C      0.000000000000     0.383040000000     0.331920000000     0          
H515     H      0.000000000000     0.410400000000     0.324500000000     0          
C516     C      0.000000000000     0.352700000000     0.302010000000     0          
H517     H      0.000000000000     0.360200000000     0.274600000000     0          
O518     O      0.000000000000     0.940700000000     0.891680000000     0          
C519     C      0.000000000000     0.883040000000     0.831920000000     0          
H520     H      0.000000000000     0.910400000000     0.824500000000     0          
C521     C      0.000000000000     0.852700000000     0.802010000000     0          
H522     H      0.000000000000     0.860200000000     0.774600000000     0          
O523     O      0.500000000000     0.440700000000     0.891680000000     0          
C524     C      0.500000000000     0.383040000000     0.831920000000     0          
H525     H      0.500000000000     0.410400000000     0.824500000000     0          
C526     C      0.500000000000     0.352700000000     0.802010000000     0          
H527     H      0.500000000000     0.360200000000     0.774600000000     0          
O528     O      0.500000000000     0.940700000000     0.391680000000     0          
C529     C      0.500000000000     0.883040000000     0.331920000000     0          
H530     H      0.500000000000     0.910400000000     0.324500000000     0          
C531     C      0.500000000000     0.852700000000     0.302010000000     0          
H532     H      0.500000000000     0.860200000000     0.274600000000     0          
O533     O      0.000000000000     0.440700000000     0.608320000000     0          
C534     C      0.000000000000     0.383040000000     0.668080000000     0          
H535     H      0.000000000000     0.410400000000     0.675500000000     0          
C536     C      0.000000000000     0.352700000000     0.697990000000     0          
H537     H      0.000000000000     0.360200000000     0.725400000000     0          
O538     O      0.000000000000     0.940700000000     0.108320000000     0          
C539     C      0.000000000000     0.883040000000     0.168080000000     0          
H540     H      0.000000000000     0.910400000000     0.175500000000     0          
C541     C      0.000000000000     0.852700000000     0.197990000000     0          
H542     H      0.000000000000     0.860200000000     0.225400000000     0          
O543     O      0.500000000000     0.440700000000     0.108320000000     0          
C544     C      0.500000000000     0.383040000000     0.168080000000     0          
H545     H      0.500000000000     0.410400000000     0.175500000000     0          
C546     C      0.500000000000     0.352700000000     0.197990000000     0          
H547     H      0.500000000000     0.360200000000     0.225400000000     0          
O548     O      0.500000000000     0.940700000000     0.608320000000     0          
C549     C      0.500000000000     0.883040000000     0.668080000000     0          
H550     H      0.500000000000     0.910400000000     0.675500000000     0          
C551     C      0.500000000000     0.852700000000     0.697990000000     0          
H552     H      0.500000000000     0.860200000000     0.725400000000     0          
O553     O      0.559300000000     0.608320000000     0.000000000000     0          
C554     C      0.616960000000     0.668080000000     0.000000000000     0          
H555     H      0.589600000000     0.675500000000     0.000000000000     0          
C556     C      0.647300000000     0.697990000000     0.000000000000     0          
H557     H      0.639800000000     0.725400000000     0.000000000000     0          
O558     O      0.559300000000     0.108320000000     0.500000000000     0          
C559     C      0.616960000000     0.168080000000     0.500000000000     0          
H560     H      0.589600000000     0.175500000000     0.500000000000     0          
C561     C      0.647300000000     0.197990000000     0.500000000000     0          
H562     H      0.639800000000     0.225400000000     0.500000000000     0          
O563     O      0.059300000000     0.608320000000     0.500000000000     0          
C564     C      0.116960000000     0.668080000000     0.500000000000     0          
H565     H      0.089600000000     0.675500000000     0.500000000000     0          
C566     C      0.147300000000     0.697990000000     0.500000000000     0          
H567     H      0.139800000000     0.725400000000     0.500000000000     0          
O568     O      0.059300000000     0.108320000000     0.000000000000     0          
C569     C      0.116960000000     0.168080000000     0.000000000000     0          
H570     H      0.089600000000     0.175500000000     0.000000000000     0          
C571     C      0.147300000000     0.197990000000     0.000000000000     0          
H572     H      0.139800000000     0.225400000000     0.000000000000     0          
O573     O      0.559300000000     0.391680000000     0.000000000000     0          
C574     C      0.616960000000     0.331920000000     0.000000000000     0          
H575     H      0.589600000000     0.324500000000     0.000000000000     0          
C576     C      0.647300000000     0.302010000000     0.000000000000     0          
H577     H      0.639800000000     0.274600000000     0.000000000000     0          
O578     O      0.559300000000     0.891680000000     0.500000000000     0          
C579     C      0.616960000000     0.831920000000     0.500000000000     0          
H580     H      0.589600000000     0.824500000000     0.500000000000     0          
C581     C      0.647300000000     0.802010000000     0.500000000000     0          
H582     H      0.639800000000     0.774600000000     0.500000000000     0          
O583     O      0.059300000000     0.391680000000     0.500000000000     0          
C584     C      0.116960000000     0.331920000000     0.500000000000     0          
H585     H      0.089600000000     0.324500000000     0.500000000000     0          
C586     C      0.147300000000     0.302010000000     0.500000000000     0          
H587     H      0.139800000000     0.274600000000     0.500000000000     0          
O588     O      0.059300000000     0.891680000000     0.000000000000     0          
C589     C      0.116960000000     0.831920000000     0.000000000000     0          
H590     H      0.089600000000     0.824500000000     0.000000000000     0          
C591     C      0.147300000000     0.802010000000     0.000000000000     0          
H592     H      0.139800000000     0.774600000000     0.000000000000     0          
O593     O      0.440700000000     0.608320000000     0.000000000000     0          
C594     C      0.383040000000     0.668080000000     0.000000000000     0          
H595     H      0.410400000000     0.675500000000     0.000000000000     0          
C596     C      0.352700000000     0.697990000000     0.000000000000     0          
H597     H      0.360200000000     0.725400000000     0.000000000000     0          
O598     O      0.440700000000     0.108320000000     0.500000000000     0          
C599     C      0.383040000000     0.168080000000     0.500000000000     0          
H600     H      0.410400000000     0.175500000000     0.500000000000     0          
C601     C      0.352700000000     0.197990000000     0.500000000000     0          
H602     H      0.360200000000     0.225400000000     0.500000000000     0          
O603     O      0.940700000000     0.608320000000     0.500000000000     0          
C604     C      0.883040000000     0.668080000000     0.500000000000     0          
H605     H      0.910400000000     0.675500000000     0.500000000000     0          
C606     C      0.852700000000     0.697990000000     0.500000000000     0          
H607     H      0.860200000000     0.725400000000     0.500000000000     0          
O608     O      0.940700000000     0.108320000000     0.000000000000     0          
C609     C      0.883040000000     0.168080000000     0.000000000000     0          
H610     H      0.910400000000     0.175500000000     0.000000000000     0          
C611     C      0.852700000000     0.197990000000     0.000000000000     0          
H612     H      0.860200000000     0.225400000000     0.000000000000     0          
O613     O      0.440700000000     0.391680000000     0.000000000000     0          
C614     C      0.383040000000     0.331920000000     0.000000000000     0          
H615     H      0.410400000000     0.324500000000     0.000000000000     0          
C616     C      0.352700000000     0.302010000000     0.000000000000     0          
H617     H      0.360200000000     0.274600000000     0.000000000000     0          
O618     O      0.440700000000     0.891680000000     0.500000000000     0          
C619     C      0.383040000000     0.831920000000     0.500000000000     0          
H620     H      0.410400000000     0.824500000000     0.500000000000     0          
C621     C      0.352700000000     0.802010000000     0.500000000000     0          
H622     H      0.360200000000     0.774600000000     0.500000000000     0          
O623     O      0.940700000000     0.391680000000     0.500000000000     0          
C624     C      0.883040000000     0.331920000000     0.500000000000     0          
H625     H      0.910400000000     0.324500000000     0.500000000000     0          
C626     C      0.852700000000     0.302010000000     0.500000000000     0          
H627     H      0.860200000000     0.274600000000     0.500000000000     0          
O628     O      0.940700000000     0.891680000000     0.000000000000     0          
C629     C      0.883040000000     0.831920000000     0.000000000000     0          
H630     H      0.910400000000     0.824500000000     0.000000000000     0          
C631     C      0.852700000000     0.802010000000     0.000000000000     0          
H632     H      0.860200000000     0.774600000000     0.000000000000     0          
C633     C      0.000000000000     0.595800000000     0.595800000000     0          
C634     C      0.000000000000     0.627890000000     0.627890000000     0          
C635     C      0.000000000000     0.687980000000     0.687980000000     0          
C636     C      0.000000000000     0.719900000000     0.719900000000     0          
C637     C      0.000000000000     0.095800000000     0.095800000000     0          
C638     C      0.000000000000     0.127890000000     0.127890000000     0          
C639     C      0.000000000000     0.187980000000     0.187980000000     0          
C640     C      0.000000000000     0.219900000000     0.219900000000     0          
C641     C      0.500000000000     0.595800000000     0.095800000000     0          
C642     C      0.500000000000     0.627890000000     0.127890000000     0          
C643     C      0.500000000000     0.687980000000     0.187980000000     0          
C644     C      0.500000000000     0.719900000000     0.219900000000     0          
C645     C      0.500000000000     0.095800000000     0.595800000000     0          
C646     C      0.500000000000     0.127890000000     0.627890000000     0          
C647     C      0.500000000000     0.187980000000     0.687980000000     0          
C648     C      0.500000000000     0.219900000000     0.719900000000     0          
C649     C      0.000000000000     0.404200000000     0.595800000000     0          
C650     C      0.000000000000     0.372110000000     0.627890000000     0          
C651     C      0.000000000000     0.312020000000     0.687980000000     0          
C652     C      0.000000000000     0.280100000000     0.719900000000     0          
C653     C      0.000000000000     0.904200000000     0.095800000000     0          
C654     C      0.000000000000     0.872110000000     0.127890000000     0          
C655     C      0.000000000000     0.812020000000     0.187980000000     0          
C656     C      0.000000000000     0.780100000000     0.219900000000     0          
C657     C      0.500000000000     0.404200000000     0.095800000000     0          
C658     C      0.500000000000     0.372110000000     0.127890000000     0          
C659     C      0.500000000000     0.312020000000     0.187980000000     0          
C660     C      0.500000000000     0.280100000000     0.219900000000     0          
C661     C      0.500000000000     0.904200000000     0.595800000000     0          
C662     C      0.500000000000     0.872110000000     0.627890000000     0          
C663     C      0.500000000000     0.812020000000     0.687980000000     0          
C664     C      0.500000000000     0.780100000000     0.719900000000     0          
C665     C      0.000000000000     0.595800000000     0.404200000000     0          
C666     C      0.000000000000     0.627890000000     0.372110000000     0          
C667     C      0.000000000000     0.687980000000     0.312020000000     0          
C668     C      0.000000000000     0.719900000000     0.280100000000     0          
C669     C      0.000000000000     0.095800000000     0.904200000000     0          
C670     C      0.000000000000     0.127890000000     0.872110000000     0          
C671     C      0.000000000000     0.187980000000     0.812020000000     0          
C672     C      0.000000000000     0.219900000000     0.780100000000     0          
C673     C      0.500000000000     0.595800000000     0.904200000000     0          
C674     C      0.500000000000     0.627890000000     0.872110000000     0          
C675     C      0.500000000000     0.687980000000     0.812020000000     0          
C676     C      0.500000000000     0.719900000000     0.780100000000     0          
C677     C      0.500000000000     0.095800000000     0.404200000000     0          
C678     C      0.500000000000     0.127890000000     0.372110000000     0          
C679     C      0.500000000000     0.187980000000     0.312020000000     0          
C680     C      0.500000000000     0.219900000000     0.280100000000     0          
C681     C      0.000000000000     0.404200000000     0.404200000000     0          
C682     C      0.000000000000     0.372110000000     0.372110000000     0          
C683     C      0.000000000000     0.312020000000     0.312020000000     0          
C684     C      0.000000000000     0.280100000000     0.280100000000     0          
C685     C      0.000000000000     0.904200000000     0.904200000000     0          
C686     C      0.000000000000     0.872110000000     0.872110000000     0          
C687     C      0.000000000000     0.812020000000     0.812020000000     0          
C688     C      0.000000000000     0.780100000000     0.780100000000     0          
C689     C      0.500000000000     0.404200000000     0.904200000000     0          
C690     C      0.500000000000     0.372110000000     0.872110000000     0          
C691     C      0.500000000000     0.312020000000     0.812020000000     0          
C692     C      0.500000000000     0.280100000000     0.780100000000     0          
C693     C      0.500000000000     0.904200000000     0.404200000000     0          
C694     C      0.500000000000     0.872110000000     0.372110000000     0          
C695     C      0.500000000000     0.812020000000     0.312020000000     0          
C696     C      0.500000000000     0.780100000000     0.280100000000     0          
C697     C      0.595800000000     0.000000000000     0.595800000000     0          
C698     C      0.627890000000     0.000000000000     0.627890000000     0          
C699     C      0.687980000000     0.000000000000     0.687980000000     0          
C700     C      0.719900000000     0.000000000000     0.719900000000     0          
C701     C      0.595800000000     0.500000000000     0.095800000000     0          
C702     C      0.627890000000     0.500000000000     0.127890000000     0          
C703     C      0.687980000000     0.500000000000     0.187980000000     0          
C704     C      0.719900000000     0.500000000000     0.219900000000     0          
C705     C      0.095800000000     0.000000000000     0.095800000000     0          
C706     C      0.127890000000     0.000000000000     0.127890000000     0          
C707     C      0.187980000000     0.000000000000     0.187980000000     0          
C708     C      0.219900000000     0.000000000000     0.219900000000     0          
C709     C      0.095800000000     0.500000000000     0.595800000000     0          
C710     C      0.127890000000     0.500000000000     0.627890000000     0          
C711     C      0.187980000000     0.500000000000     0.687980000000     0          
C712     C      0.219900000000     0.500000000000     0.719900000000     0          
C713     C      0.595800000000     0.000000000000     0.404200000000     0          
C714     C      0.627890000000     0.000000000000     0.372110000000     0          
C715     C      0.687980000000     0.000000000000     0.312020000000     0          
C716     C      0.719900000000     0.000000000000     0.280100000000     0          
C717     C      0.595800000000     0.500000000000     0.904200000000     0          
C718     C      0.627890000000     0.500000000000     0.872110000000     0          
C719     C      0.687980000000     0.500000000000     0.812020000000     0          
C720     C      0.719900000000     0.500000000000     0.780100000000     0          
C721     C      0.095800000000     0.000000000000     0.904200000000     0          
C722     C      0.127890000000     0.000000000000     0.872110000000     0          
C723     C      0.187980000000     0.000000000000     0.812020000000     0          
C724     C      0.219900000000     0.000000000000     0.780100000000     0          
C725     C      0.095800000000     0.500000000000     0.404200000000     0          
C726     C      0.127890000000     0.500000000000     0.372110000000     0          
C727     C      0.187980000000     0.500000000000     0.312020000000     0          
C728     C      0.219900000000     0.500000000000     0.280100000000     0          
C729     C      0.404200000000     0.000000000000     0.595800000000     0          
C730     C      0.372110000000     0.000000000000     0.627890000000     0          
C731     C      0.312020000000     0.000000000000     0.687980000000     0          
C732     C      0.280100000000     0.000000000000     0.719900000000     0          
C733     C      0.404200000000     0.500000000000     0.095800000000     0          
C734     C      0.372110000000     0.500000000000     0.127890000000     0          
C735     C      0.312020000000     0.500000000000     0.187980000000     0          
C736     C      0.280100000000     0.500000000000     0.219900000000     0          
C737     C      0.904200000000     0.000000000000     0.095800000000     0          
C738     C      0.872110000000     0.000000000000     0.127890000000     0          
C739     C      0.812020000000     0.000000000000     0.187980000000     0          
C740     C      0.780100000000     0.000000000000     0.219900000000     0          
C741     C      0.904200000000     0.500000000000     0.595800000000     0          
C742     C      0.872110000000     0.500000000000     0.627890000000     0          
C743     C      0.812020000000     0.500000000000     0.687980000000     0          
C744     C      0.780100000000     0.500000000000     0.719900000000     0          
C745     C      0.404200000000     0.000000000000     0.404200000000     0          
C746     C      0.372110000000     0.000000000000     0.372110000000     0          
C747     C      0.312020000000     0.000000000000     0.312020000000     0          
C748     C      0.280100000000     0.000000000000     0.280100000000     0          
C749     C      0.404200000000     0.500000000000     0.904200000000     0          
C750     C      0.372110000000     0.500000000000     0.872110000000     0          
C751     C      0.312020000000     0.500000000000     0.812020000000     0          
C752     C      0.280100000000     0.500000000000     0.780100000000     0          
C753     C      0.904200000000     0.000000000000     0.904200000000     0          
C754     C      0.872110000000     0.000000000000     0.872110000000     0          
C755     C      0.812020000000     0.000000000000     0.812020000000     0          
C756     C      0.780100000000     0.000000000000     0.780100000000     0          
C757     C      0.904200000000     0.500000000000     0.404200000000     0          
C758     C      0.872110000000     0.500000000000     0.372110000000     0          
C759     C      0.812020000000     0.500000000000     0.312020000000     0          
C760     C      0.780100000000     0.500000000000     0.280100000000     0          
C761     C      0.595800000000     0.595800000000     0.000000000000     0          
C762     C      0.627890000000     0.627890000000     0.000000000000     0          
C763     C      0.687980000000     0.687980000000     0.000000000000     0          
C764     C      0.719900000000     0.719900000000     0.000000000000     0          
C765     C      0.595800000000     0.095800000000     0.500000000000     0          
C766     C      0.627890000000     0.127890000000     0.500000000000     0          
C767     C      0.687980000000     0.187980000000     0.500000000000     0          
C768     C      0.719900000000     0.219900000000     0.500000000000     0          
C769     C      0.095800000000     0.595800000000     0.500000000000     0          
C770     C      0.127890000000     0.627890000000     0.500000000000     0          
C771     C      0.187980000000     0.687980000000     0.500000000000     0          
C772     C      0.219900000000     0.719900000000     0.500000000000     0          
C773     C      0.095800000000     0.095800000000     0.000000000000     0          
C774     C      0.127890000000     0.127890000000     0.000000000000     0          
C775     C      0.187980000000     0.187980000000     0.000000000000     0          
C776     C      0.219900000000     0.219900000000     0.000000000000     0          
C777     C      0.404200000000     0.595800000000     0.000000000000     0          
C778     C      0.372110000000     0.627890000000     0.000000000000     0          
C779     C      0.312020000000     0.687980000000     0.000000000000     0          
C780     C      0.280100000000     0.719900000000     0.000000000000     0          
C781     C      0.404200000000     0.095800000000     0.500000000000     0          
C782     C      0.372110000000     0.127890000000     0.500000000000     0          
C783     C      0.312020000000     0.187980000000     0.500000000000     0          
C784     C      0.280100000000     0.219900000000     0.500000000000     0          
C785     C      0.904200000000     0.595800000000     0.500000000000     0          
C786     C      0.872110000000     0.627890000000     0.500000000000     0          
C787     C      0.812020000000     0.687980000000     0.500000000000     0          
C788     C      0.780100000000     0.719900000000     0.500000000000     0          
C789     C      0.904200000000     0.095800000000     0.000000000000     0          
C790     C      0.872110000000     0.127890000000     0.000000000000     0          
C791     C      0.812020000000     0.187980000000     0.000000000000     0          
C792     C      0.780100000000     0.219900000000     0.000000000000     0          
C793     C      0.595800000000     0.404200000000     0.000000000000     0          
C794     C      0.627890000000     0.372110000000     0.000000000000     0          
C795     C      0.687980000000     0.312020000000     0.000000000000     0          
C796     C      0.719900000000     0.280100000000     0.000000000000     0          
C797     C      0.595800000000     0.904200000000     0.500000000000     0          
C798     C      0.627890000000     0.872110000000     0.500000000000     0          
C799     C      0.687980000000     0.812020000000     0.500000000000     0          
C800     C      0.719900000000     0.780100000000     0.500000000000     0          
C801     C      0.095800000000     0.404200000000     0.500000000000     0          
C802     C      0.127890000000     0.372110000000     0.500000000000     0          
C803     C      0.187980000000     0.312020000000     0.500000000000     0          
C804     C      0.219900000000     0.280100000000     0.500000000000     0          
C805     C      0.095800000000     0.904200000000     0.000000000000     0          
C806     C      0.127890000000     0.872110000000     0.000000000000     0          
C807     C      0.187980000000     0.812020000000     0.000000000000     0          
C808     C      0.219900000000     0.780100000000     0.000000000000     0          
C809     C      0.404200000000     0.404200000000     0.000000000000     0          
C810     C      0.372110000000     0.372110000000     0.000000000000     0          
C811     C      0.312020000000     0.312020000000     0.000000000000     0          
C812     C      0.280100000000     0.280100000000     0.000000000000     0          
C813     C      0.404200000000     0.904200000000     0.500000000000     0          
C814     C      0.372110000000     0.872110000000     0.500000000000     0          
C815     C      0.312020000000     0.812020000000     0.500000000000     0          
C816     C      0.280100000000     0.780100000000     0.500000000000     0          
C817     C      0.904200000000     0.404200000000     0.500000000000     0          
C818     C      0.872110000000     0.372110000000     0.500000000000     0          
C819     C      0.812020000000     0.312020000000     0.500000000000     0          
C820     C      0.780100000000     0.280100000000     0.500000000000     0          
C821     C      0.904200000000     0.904200000000     0.000000000000     0          
C822     C      0.872110000000     0.872110000000     0.000000000000     0          
C823     C      0.812020000000     0.812020000000     0.000000000000     0          
C824     C      0.780100000000     0.780100000000     0.000000000000     0          
H825     H      0.750170000000     0.443740000000     0.808820000000     0          
H826     H      0.691180000000     0.556260000000     0.749830000000     0          
H827     H      0.749830000000     0.556260000000     0.691180000000     0          
H828     H      0.808820000000     0.443740000000     0.750170000000     0          
H829     H      0.750170000000     0.556260000000     0.191180000000     0          
H830     H      0.691180000000     0.443740000000     0.250170000000     0          
H831     H      0.749830000000     0.443740000000     0.308820000000     0          
H832     H      0.808820000000     0.556260000000     0.249830000000     0          
H833     H      0.443740000000     0.808820000000     0.750170000000     0          
H834     H      0.556260000000     0.749830000000     0.691180000000     0          
H835     H      0.556260000000     0.691180000000     0.749830000000     0          
H836     H      0.443740000000     0.750170000000     0.808820000000     0          
H837     H      0.808820000000     0.750170000000     0.443740000000     0          
H838     H      0.749830000000     0.691180000000     0.556260000000     0          
H839     H      0.691180000000     0.749830000000     0.556260000000     0          
H840     H      0.750170000000     0.808820000000     0.443740000000     0          
H841     H      0.308820000000     0.749830000000     0.556260000000     0          
H842     H      0.249830000000     0.808820000000     0.443740000000     0          
H843     H      0.191180000000     0.750170000000     0.443740000000     0          
H844     H      0.250170000000     0.691180000000     0.556260000000     0          
H845     H      0.250170000000     0.556260000000     0.691180000000     0          
H846     H      0.250170000000     0.443740000000     0.308820000000     0          
H847     H      0.191180000000     0.556260000000     0.249830000000     0          
H848     H      0.191180000000     0.443740000000     0.750170000000     0          
H849     H      0.249830000000     0.443740000000     0.808820000000     0          
H850     H      0.249830000000     0.556260000000     0.191180000000     0          
H851     H      0.308820000000     0.443740000000     0.250170000000     0          
H852     H      0.308820000000     0.556260000000     0.749830000000     0          
H853     H      0.556260000000     0.691180000000     0.250170000000     0          
H854     H      0.443740000000     0.750170000000     0.191180000000     0          
H855     H      0.443740000000     0.808820000000     0.249830000000     0          
H856     H      0.556260000000     0.749830000000     0.308820000000     0          
H857     H      0.443740000000     0.191180000000     0.249830000000     0          
H858     H      0.556260000000     0.308820000000     0.749830000000     0          
H859     H      0.556260000000     0.250170000000     0.308820000000     0          
H860     H      0.443740000000     0.249830000000     0.808820000000     0          
H861     H      0.556260000000     0.308820000000     0.250170000000     0          
H862     H      0.443740000000     0.191180000000     0.750170000000     0          
H863     H      0.443740000000     0.249830000000     0.191180000000     0          
H864     H      0.556260000000     0.250170000000     0.691180000000     0          
H865     H      0.308820000000     0.250170000000     0.443740000000     0          
H866     H      0.249830000000     0.191180000000     0.556260000000     0          
H867     H      0.191180000000     0.249830000000     0.556260000000     0          
H868     H      0.250170000000     0.308820000000     0.443740000000     0          
H869     H      0.808820000000     0.249830000000     0.556260000000     0          
H870     H      0.749830000000     0.308820000000     0.443740000000     0          
H871     H      0.691180000000     0.250170000000     0.443740000000     0          
H872     H      0.750170000000     0.191180000000     0.556260000000     0          
H873     H      0.943740000000     0.749830000000     0.808820000000     0          
H874     H      0.943740000000     0.691180000000     0.750170000000     0          
H875     H      0.056260000000     0.808820000000     0.749830000000     0          
H876     H      0.056260000000     0.750170000000     0.691180000000     0          
H877     H      0.943740000000     0.691180000000     0.249830000000     0          
H878     H      0.943740000000     0.749830000000     0.191180000000     0          
H879     H      0.056260000000     0.750170000000     0.308820000000     0          
H880     H      0.056260000000     0.808820000000     0.250170000000     0          
H881     H      0.943740000000     0.249830000000     0.308820000000     0          
H882     H      0.943740000000     0.191180000000     0.250170000000     0          
H883     H      0.056260000000     0.308820000000     0.249830000000     0          
H884     H      0.056260000000     0.250170000000     0.191180000000     0          
H885     H      0.943740000000     0.191180000000     0.749830000000     0          
H886     H      0.943740000000     0.249830000000     0.691180000000     0          
H887     H      0.056260000000     0.250170000000     0.808820000000     0          
H888     H      0.056260000000     0.308820000000     0.750170000000     0          
H889     H      0.691180000000     0.943740000000     0.750170000000     0          
H890     H      0.749830000000     0.943740000000     0.808820000000     0          
H891     H      0.750170000000     0.056260000000     0.691180000000     0          
H892     H      0.808820000000     0.056260000000     0.749830000000     0          
H893     H      0.750170000000     0.943740000000     0.308820000000     0          
H894     H      0.808820000000     0.943740000000     0.250170000000     0          
H895     H      0.691180000000     0.056260000000     0.249830000000     0          
H896     H      0.749830000000     0.056260000000     0.191180000000     0          
H897     H      0.250170000000     0.943740000000     0.808820000000     0          
H898     H      0.308820000000     0.943740000000     0.750170000000     0          
H899     H      0.191180000000     0.056260000000     0.749830000000     0          
H900     H      0.249830000000     0.056260000000     0.691180000000     0          
H901     H      0.191180000000     0.943740000000     0.250170000000     0          
H902     H      0.249830000000     0.943740000000     0.308820000000     0          
H903     H      0.250170000000     0.056260000000     0.191180000000     0          
H904     H      0.308820000000     0.056260000000     0.249830000000     0          
H905     H      0.691180000000     0.249830000000     0.943740000000     0          
H906     H      0.749830000000     0.191180000000     0.943740000000     0          
H907     H      0.750170000000     0.308820000000     0.056260000000     0          
H908     H      0.808820000000     0.250170000000     0.056260000000     0          
H909     H      0.750170000000     0.691180000000     0.943740000000     0          
H910     H      0.808820000000     0.749830000000     0.943740000000     0          
H911     H      0.691180000000     0.750170000000     0.056260000000     0          
H912     H      0.749830000000     0.808820000000     0.056260000000     0          
H913     H      0.249830000000     0.308820000000     0.943740000000     0          
H914     H      0.191180000000     0.250170000000     0.943740000000     0          
H915     H      0.308820000000     0.249830000000     0.056260000000     0          
H916     H      0.250170000000     0.191180000000     0.056260000000     0          
H917     H      0.191180000000     0.749830000000     0.943740000000     0          
H918     H      0.249830000000     0.691180000000     0.943740000000     0          
H919     H      0.250170000000     0.808820000000     0.056260000000     0          
H920     H      0.308820000000     0.750170000000     0.056260000000     0          


