data_UWOSIK

_audit_creation_method RASPA-1.0
_audit_creation_date 2020-11-2
_audit_author_name 'Rocio Bueno-Perez'

_cell_length_a    28.345
_cell_length_b    28.345
_cell_length_c    28.345
_cell_angle_alpha 90
_cell_angle_beta  90
_cell_angle_gamma 90
_cell_volume      22773.5

_symmetry_cell_setting          triclinic
_symmetry_space_group_name_Hall 'P 1'
_symmetry_space_group_name_H-M  'P 1'
_symmetry_Int_Tables_number     1

_symmetry_equiv_pos_as_xyz 'x,y,z'

loop_
_atom_site_label
_atom_site_type_symbol
_atom_site_fract_x
_atom_site_fract_y
_atom_site_fract_z
_atom_site_charge
C1       C      0.355500000000     0.155400000000     0.118200000000     0          
C2       C      0.395200000000     0.183000000000     0.109800000000     0          
H3       H      0.420900000000     0.170300000000     0.093700000000     0          
C4       C      0.396700000000     0.229400000000     0.125500000000     0          
H5       H      0.423200000000     0.247800000000     0.119900000000     0          
C6       C      0.358400000000     0.248300000000     0.149600000000     0          
H7       H      0.359300000000     0.279400000000     0.160100000000     0          
C8       C      0.318700000000     0.220800000000     0.158000000000     0          
H9       H      0.293000000000     0.233500000000     0.174200000000     0          
C10      C      0.317200000000     0.174400000000     0.142300000000     0          
C11      C      0.271100000000     0.105000000000     0.137700000000     0          
H12      H      0.243100000000     0.088100000000     0.146600000000     0          
C13      C      0.310300000000     0.081200000000     0.112700000000     0          
H14      H      0.309000000000     0.048700000000     0.103300000000     0          
C15      C      0.644500000000     0.844600000000     0.118200000000     0          
C16      C      0.604800000000     0.817000000000     0.109800000000     0          
H17      H      0.579100000000     0.829700000000     0.093700000000     0          
C18      C      0.603300000000     0.770600000000     0.125500000000     0          
H19      H      0.576800000000     0.752200000000     0.119900000000     0          
C20      C      0.641600000000     0.751700000000     0.149600000000     0          
H21      H      0.640700000000     0.720600000000     0.160100000000     0          
C22      C      0.681300000000     0.779200000000     0.158000000000     0          
H23      H      0.707000000000     0.766500000000     0.174200000000     0          
C24      C      0.682800000000     0.825600000000     0.142300000000     0          
C25      C      0.728900000000     0.895000000000     0.137700000000     0          
H26      H      0.756900000000     0.911900000000     0.146600000000     0          
C27      C      0.689700000000     0.918800000000     0.112700000000     0          
H28      H      0.691000000000     0.951300000000     0.103300000000     0          
C29      C      0.644500000000     0.155400000000     0.881800000000     0          
C30      C      0.604800000000     0.183000000000     0.890200000000     0          
H31      H      0.579100000000     0.170300000000     0.906300000000     0          
C32      C      0.603300000000     0.229400000000     0.874500000000     0          
H33      H      0.576800000000     0.247800000000     0.880100000000     0          
C34      C      0.641600000000     0.248300000000     0.850400000000     0          
H35      H      0.640700000000     0.279400000000     0.839900000000     0          
C36      C      0.681300000000     0.220800000000     0.842000000000     0          
H37      H      0.707000000000     0.233500000000     0.825800000000     0          
C38      C      0.682800000000     0.174400000000     0.857700000000     0          
C39      C      0.728900000000     0.105000000000     0.862300000000     0          
H40      H      0.756900000000     0.088100000000     0.853400000000     0          
C41      C      0.689700000000     0.081200000000     0.887300000000     0          
H42      H      0.691000000000     0.048700000000     0.896700000000     0          
C43      C      0.355500000000     0.844600000000     0.881800000000     0          
C44      C      0.395200000000     0.817000000000     0.890200000000     0          
H45      H      0.420900000000     0.829700000000     0.906300000000     0          
C46      C      0.396700000000     0.770600000000     0.874500000000     0          
H47      H      0.423200000000     0.752200000000     0.880100000000     0          
C48      C      0.358400000000     0.751700000000     0.850400000000     0          
H49      H      0.359300000000     0.720600000000     0.839900000000     0          
C50      C      0.318700000000     0.779200000000     0.842000000000     0          
H51      H      0.293000000000     0.766500000000     0.825800000000     0          
C52      C      0.317200000000     0.825600000000     0.857700000000     0          
C53      C      0.271100000000     0.895000000000     0.862300000000     0          
H54      H      0.243100000000     0.911900000000     0.853400000000     0          
C55      C      0.310300000000     0.918800000000     0.887300000000     0          
H56      H      0.309000000000     0.951300000000     0.896700000000     0          
C57      C      0.118200000000     0.355500000000     0.155400000000     0          
C58      C      0.109800000000     0.395200000000     0.183000000000     0          
H59      H      0.093700000000     0.420900000000     0.170300000000     0          
C60      C      0.125500000000     0.396700000000     0.229400000000     0          
H61      H      0.119900000000     0.423200000000     0.247800000000     0          
C62      C      0.149600000000     0.358400000000     0.248300000000     0          
H63      H      0.160100000000     0.359300000000     0.279400000000     0          
C64      C      0.158000000000     0.318700000000     0.220800000000     0          
H65      H      0.174200000000     0.293000000000     0.233500000000     0          
C66      C      0.142300000000     0.317200000000     0.174400000000     0          
C67      C      0.137700000000     0.271100000000     0.105000000000     0          
H68      H      0.146600000000     0.243100000000     0.088100000000     0          
C69      C      0.112700000000     0.310300000000     0.081200000000     0          
H70      H      0.103300000000     0.309000000000     0.048700000000     0          
C71      C      0.118200000000     0.644500000000     0.844600000000     0          
C72      C      0.109800000000     0.604800000000     0.817000000000     0          
H73      H      0.093700000000     0.579100000000     0.829700000000     0          
C74      C      0.125500000000     0.603300000000     0.770600000000     0          
H75      H      0.119900000000     0.576800000000     0.752200000000     0          
C76      C      0.149600000000     0.641600000000     0.751700000000     0          
H77      H      0.160100000000     0.640700000000     0.720600000000     0          
C78      C      0.158000000000     0.681300000000     0.779200000000     0          
H79      H      0.174200000000     0.707000000000     0.766500000000     0          
C80      C      0.142300000000     0.682800000000     0.825600000000     0          
C81      C      0.137700000000     0.728900000000     0.895000000000     0          
H82      H      0.146600000000     0.756900000000     0.911900000000     0          
C83      C      0.112700000000     0.689700000000     0.918800000000     0          
H84      H      0.103300000000     0.691000000000     0.951300000000     0          
C85      C      0.881800000000     0.644500000000     0.155400000000     0          
C86      C      0.890200000000     0.604800000000     0.183000000000     0          
H87      H      0.906300000000     0.579100000000     0.170300000000     0          
C88      C      0.874500000000     0.603300000000     0.229400000000     0          
H89      H      0.880100000000     0.576800000000     0.247800000000     0          
C90      C      0.850400000000     0.641600000000     0.248300000000     0          
H91      H      0.839900000000     0.640700000000     0.279400000000     0          
C92      C      0.842000000000     0.681300000000     0.220800000000     0          
H93      H      0.825800000000     0.707000000000     0.233500000000     0          
C94      C      0.857700000000     0.682800000000     0.174400000000     0          
C95      C      0.862300000000     0.728900000000     0.105000000000     0          
H96      H      0.853400000000     0.756900000000     0.088100000000     0          
C97      C      0.887300000000     0.689700000000     0.081200000000     0          
H98      H      0.896700000000     0.691000000000     0.048700000000     0          
C99      C      0.881800000000     0.355500000000     0.844600000000     0          
C100     C      0.890200000000     0.395200000000     0.817000000000     0          
H101     H      0.906300000000     0.420900000000     0.829700000000     0          
C102     C      0.874500000000     0.396700000000     0.770600000000     0          
H103     H      0.880100000000     0.423200000000     0.752200000000     0          
C104     C      0.850400000000     0.358400000000     0.751700000000     0          
H105     H      0.839900000000     0.359300000000     0.720600000000     0          
C106     C      0.842000000000     0.318700000000     0.779200000000     0          
H107     H      0.825800000000     0.293000000000     0.766500000000     0          
C108     C      0.857700000000     0.317200000000     0.825600000000     0          
C109     C      0.862300000000     0.271100000000     0.895000000000     0          
H110     H      0.853400000000     0.243100000000     0.911900000000     0          
C111     C      0.887300000000     0.310300000000     0.918800000000     0          
H112     H      0.896700000000     0.309000000000     0.951300000000     0          
C113     C      0.155400000000     0.118200000000     0.355500000000     0          
C114     C      0.183000000000     0.109800000000     0.395200000000     0          
H115     H      0.170300000000     0.093700000000     0.420900000000     0          
C116     C      0.229400000000     0.125500000000     0.396700000000     0          
H117     H      0.247800000000     0.119900000000     0.423200000000     0          
C118     C      0.248300000000     0.149600000000     0.358400000000     0          
H119     H      0.279400000000     0.160100000000     0.359300000000     0          
C120     C      0.220800000000     0.158000000000     0.318700000000     0          
H121     H      0.233500000000     0.174200000000     0.293000000000     0          
C122     C      0.174400000000     0.142300000000     0.317200000000     0          
C123     C      0.105000000000     0.137700000000     0.271100000000     0          
H124     H      0.088100000000     0.146600000000     0.243100000000     0          
C125     C      0.081200000000     0.112700000000     0.310300000000     0          
H126     H      0.048700000000     0.103300000000     0.309000000000     0          
C127     C      0.844600000000     0.118200000000     0.644500000000     0          
C128     C      0.817000000000     0.109800000000     0.604800000000     0          
H129     H      0.829700000000     0.093700000000     0.579100000000     0          
C130     C      0.770600000000     0.125500000000     0.603300000000     0          
H131     H      0.752200000000     0.119900000000     0.576800000000     0          
C132     C      0.751700000000     0.149600000000     0.641600000000     0          
H133     H      0.720600000000     0.160100000000     0.640700000000     0          
C134     C      0.779200000000     0.158000000000     0.681300000000     0          
H135     H      0.766500000000     0.174200000000     0.707000000000     0          
C136     C      0.825600000000     0.142300000000     0.682800000000     0          
C137     C      0.895000000000     0.137700000000     0.728900000000     0          
H138     H      0.911900000000     0.146600000000     0.756900000000     0          
C139     C      0.918800000000     0.112700000000     0.689700000000     0          
H140     H      0.951300000000     0.103300000000     0.691000000000     0          
C141     C      0.155400000000     0.881800000000     0.644500000000     0          
C142     C      0.183000000000     0.890200000000     0.604800000000     0          
H143     H      0.170300000000     0.906300000000     0.579100000000     0          
C144     C      0.229400000000     0.874500000000     0.603300000000     0          
H145     H      0.247800000000     0.880100000000     0.576800000000     0          
C146     C      0.248300000000     0.850400000000     0.641600000000     0          
H147     H      0.279400000000     0.839900000000     0.640700000000     0          
C148     C      0.220800000000     0.842000000000     0.681300000000     0          
H149     H      0.233500000000     0.825800000000     0.707000000000     0          
C150     C      0.174400000000     0.857700000000     0.682800000000     0          
C151     C      0.105000000000     0.862300000000     0.728900000000     0          
H152     H      0.088100000000     0.853400000000     0.756900000000     0          
C153     C      0.081200000000     0.887300000000     0.689700000000     0          
H154     H      0.048700000000     0.896700000000     0.691000000000     0          
C155     C      0.844600000000     0.881800000000     0.355500000000     0          
C156     C      0.817000000000     0.890200000000     0.395200000000     0          
H157     H      0.829700000000     0.906300000000     0.420900000000     0          
C158     C      0.770600000000     0.874500000000     0.396700000000     0          
H159     H      0.752200000000     0.880100000000     0.423200000000     0          
C160     C      0.751700000000     0.850400000000     0.358400000000     0          
H161     H      0.720600000000     0.839900000000     0.359300000000     0          
C162     C      0.779200000000     0.842000000000     0.318700000000     0          
H163     H      0.766500000000     0.825800000000     0.293000000000     0          
C164     C      0.825600000000     0.857700000000     0.317200000000     0          
C165     C      0.895000000000     0.862300000000     0.271100000000     0          
H166     H      0.911900000000     0.853400000000     0.243100000000     0          
C167     C      0.918800000000     0.887300000000     0.310300000000     0          
H168     H      0.951300000000     0.896700000000     0.309000000000     0          
C169     C      0.155400000000     0.355500000000     0.881800000000     0          
C170     C      0.183000000000     0.395200000000     0.890200000000     0          
H171     H      0.170300000000     0.420900000000     0.906300000000     0          
C172     C      0.229400000000     0.396700000000     0.874500000000     0          
H173     H      0.247800000000     0.423200000000     0.880100000000     0          
C174     C      0.248300000000     0.358400000000     0.850400000000     0          
H175     H      0.279400000000     0.359300000000     0.839900000000     0          
C176     C      0.220800000000     0.318700000000     0.842000000000     0          
H177     H      0.233500000000     0.293000000000     0.825800000000     0          
C178     C      0.174400000000     0.317200000000     0.857700000000     0          
C179     C      0.105000000000     0.271100000000     0.862300000000     0          
H180     H      0.088100000000     0.243100000000     0.853400000000     0          
C181     C      0.081200000000     0.310300000000     0.887300000000     0          
H182     H      0.048700000000     0.309000000000     0.896700000000     0          
C183     C      0.844600000000     0.644500000000     0.881800000000     0          
C184     C      0.817000000000     0.604800000000     0.890200000000     0          
H185     H      0.829700000000     0.579100000000     0.906300000000     0          
C186     C      0.770600000000     0.603300000000     0.874500000000     0          
H187     H      0.752200000000     0.576800000000     0.880100000000     0          
C188     C      0.751700000000     0.641600000000     0.850400000000     0          
H189     H      0.720600000000     0.640700000000     0.839900000000     0          
C190     C      0.779200000000     0.681300000000     0.842000000000     0          
H191     H      0.766500000000     0.707000000000     0.825800000000     0          
C192     C      0.825600000000     0.682800000000     0.857700000000     0          
C193     C      0.895000000000     0.728900000000     0.862300000000     0          
H194     H      0.911900000000     0.756900000000     0.853400000000     0          
C195     C      0.918800000000     0.689700000000     0.887300000000     0          
H196     H      0.951300000000     0.691000000000     0.896700000000     0          
C197     C      0.155400000000     0.644500000000     0.118200000000     0          
C198     C      0.183000000000     0.604800000000     0.109800000000     0          
H199     H      0.170300000000     0.579100000000     0.093700000000     0          
C200     C      0.229400000000     0.603300000000     0.125500000000     0          
H201     H      0.247800000000     0.576800000000     0.119900000000     0          
C202     C      0.248300000000     0.641600000000     0.149600000000     0          
H203     H      0.279400000000     0.640700000000     0.160100000000     0          
C204     C      0.220800000000     0.681300000000     0.158000000000     0          
H205     H      0.233500000000     0.707000000000     0.174200000000     0          
C206     C      0.174400000000     0.682800000000     0.142300000000     0          
C207     C      0.105000000000     0.728900000000     0.137700000000     0          
H208     H      0.088100000000     0.756900000000     0.146600000000     0          
C209     C      0.081200000000     0.689700000000     0.112700000000     0          
H210     H      0.048700000000     0.691000000000     0.103300000000     0          
C211     C      0.844600000000     0.355500000000     0.118200000000     0          
C212     C      0.817000000000     0.395200000000     0.109800000000     0          
H213     H      0.829700000000     0.420900000000     0.093700000000     0          
C214     C      0.770600000000     0.396700000000     0.125500000000     0          
H215     H      0.752200000000     0.423200000000     0.119900000000     0          
C216     C      0.751700000000     0.358400000000     0.149600000000     0          
H217     H      0.720600000000     0.359300000000     0.160100000000     0          
C218     C      0.779200000000     0.318700000000     0.158000000000     0          
H219     H      0.766500000000     0.293000000000     0.174200000000     0          
C220     C      0.825600000000     0.317200000000     0.142300000000     0          
C221     C      0.895000000000     0.271100000000     0.137700000000     0          
H222     H      0.911900000000     0.243100000000     0.146600000000     0          
C223     C      0.918800000000     0.310300000000     0.112700000000     0          
H224     H      0.951300000000     0.309000000000     0.103300000000     0          
C225     C      0.355500000000     0.118200000000     0.844600000000     0          
C226     C      0.395200000000     0.109800000000     0.817000000000     0          
H227     H      0.420900000000     0.093700000000     0.829700000000     0          
C228     C      0.396700000000     0.125500000000     0.770600000000     0          
H229     H      0.423200000000     0.119900000000     0.752200000000     0          
C230     C      0.358400000000     0.149600000000     0.751700000000     0          
H231     H      0.359300000000     0.160100000000     0.720600000000     0          
C232     C      0.318700000000     0.158000000000     0.779200000000     0          
H233     H      0.293000000000     0.174200000000     0.766500000000     0          
C234     C      0.317200000000     0.142300000000     0.825600000000     0          
C235     C      0.271100000000     0.137700000000     0.895000000000     0          
H236     H      0.243100000000     0.146600000000     0.911900000000     0          
C237     C      0.310300000000     0.112700000000     0.918800000000     0          
H238     H      0.309000000000     0.103300000000     0.951300000000     0          
C239     C      0.644500000000     0.118200000000     0.155400000000     0          
C240     C      0.604800000000     0.109800000000     0.183000000000     0          
H241     H      0.579100000000     0.093700000000     0.170300000000     0          
C242     C      0.603300000000     0.125500000000     0.229400000000     0          
H243     H      0.576800000000     0.119900000000     0.247800000000     0          
C244     C      0.641600000000     0.149600000000     0.248300000000     0          
H245     H      0.640700000000     0.160100000000     0.279400000000     0          
C246     C      0.681300000000     0.158000000000     0.220800000000     0          
H247     H      0.707000000000     0.174200000000     0.233500000000     0          
C248     C      0.682800000000     0.142300000000     0.174400000000     0          
C249     C      0.728900000000     0.137700000000     0.105000000000     0          
H250     H      0.756900000000     0.146600000000     0.088100000000     0          
C251     C      0.689700000000     0.112700000000     0.081200000000     0          
H252     H      0.691000000000     0.103300000000     0.048700000000     0          
C253     C      0.644500000000     0.881800000000     0.844600000000     0          
C254     C      0.604800000000     0.890200000000     0.817000000000     0          
H255     H      0.579100000000     0.906300000000     0.829700000000     0          
C256     C      0.603300000000     0.874500000000     0.770600000000     0          
H257     H      0.576800000000     0.880100000000     0.752200000000     0          
C258     C      0.641600000000     0.850400000000     0.751700000000     0          
H259     H      0.640700000000     0.839900000000     0.720600000000     0          
C260     C      0.681300000000     0.842000000000     0.779200000000     0          
H261     H      0.707000000000     0.825800000000     0.766500000000     0          
C262     C      0.682800000000     0.857700000000     0.825600000000     0          
C263     C      0.728900000000     0.862300000000     0.895000000000     0          
H264     H      0.756900000000     0.853400000000     0.911900000000     0          
C265     C      0.689700000000     0.887300000000     0.918800000000     0          
H266     H      0.691000000000     0.896700000000     0.951300000000     0          
C267     C      0.355500000000     0.881800000000     0.155400000000     0          
C268     C      0.395200000000     0.890200000000     0.183000000000     0          
H269     H      0.420900000000     0.906300000000     0.170300000000     0          
C270     C      0.396700000000     0.874500000000     0.229400000000     0          
H271     H      0.423200000000     0.880100000000     0.247800000000     0          
C272     C      0.358400000000     0.850400000000     0.248300000000     0          
H273     H      0.359300000000     0.839900000000     0.279400000000     0          
C274     C      0.318700000000     0.842000000000     0.220800000000     0          
H275     H      0.293000000000     0.825800000000     0.233500000000     0          
C276     C      0.317200000000     0.857700000000     0.174400000000     0          
C277     C      0.271100000000     0.862300000000     0.105000000000     0          
H278     H      0.243100000000     0.853400000000     0.088100000000     0          
C279     C      0.310300000000     0.887300000000     0.081200000000     0          
H280     H      0.309000000000     0.896700000000     0.048700000000     0          
C281     C      0.118200000000     0.155400000000     0.644500000000     0          
C282     C      0.109800000000     0.183000000000     0.604800000000     0          
H283     H      0.093700000000     0.170300000000     0.579100000000     0          
C284     C      0.125500000000     0.229400000000     0.603300000000     0          
H285     H      0.119900000000     0.247800000000     0.576800000000     0          
C286     C      0.149600000000     0.248300000000     0.641600000000     0          
H287     H      0.160100000000     0.279400000000     0.640700000000     0          
C288     C      0.158000000000     0.220800000000     0.681300000000     0          
H289     H      0.174200000000     0.233500000000     0.707000000000     0          
C290     C      0.142300000000     0.174400000000     0.682800000000     0          
C291     C      0.137700000000     0.105000000000     0.728900000000     0          
H292     H      0.146600000000     0.088100000000     0.756900000000     0          
C293     C      0.112700000000     0.081200000000     0.689700000000     0          
H294     H      0.103300000000     0.048700000000     0.691000000000     0          
C295     C      0.118200000000     0.844600000000     0.355500000000     0          
C296     C      0.109800000000     0.817000000000     0.395200000000     0          
H297     H      0.093700000000     0.829700000000     0.420900000000     0          
C298     C      0.125500000000     0.770600000000     0.396700000000     0          
H299     H      0.119900000000     0.752200000000     0.423200000000     0          
C300     C      0.149600000000     0.751700000000     0.358400000000     0          
H301     H      0.160100000000     0.720600000000     0.359300000000     0          
C302     C      0.158000000000     0.779200000000     0.318700000000     0          
H303     H      0.174200000000     0.766500000000     0.293000000000     0          
C304     C      0.142300000000     0.825600000000     0.317200000000     0          
C305     C      0.137700000000     0.895000000000     0.271100000000     0          
H306     H      0.146600000000     0.911900000000     0.243100000000     0          
C307     C      0.112700000000     0.918800000000     0.310300000000     0          
H308     H      0.103300000000     0.951300000000     0.309000000000     0          
C309     C      0.881800000000     0.155400000000     0.355500000000     0          
C310     C      0.890200000000     0.183000000000     0.395200000000     0          
H311     H      0.906300000000     0.170300000000     0.420900000000     0          
C312     C      0.874500000000     0.229400000000     0.396700000000     0          
H313     H      0.880100000000     0.247800000000     0.423200000000     0          
C314     C      0.850400000000     0.248300000000     0.358400000000     0          
H315     H      0.839900000000     0.279400000000     0.359300000000     0          
C316     C      0.842000000000     0.220800000000     0.318700000000     0          
H317     H      0.825800000000     0.233500000000     0.293000000000     0          
C318     C      0.857700000000     0.174400000000     0.317200000000     0          
C319     C      0.862300000000     0.105000000000     0.271100000000     0          
H320     H      0.853400000000     0.088100000000     0.243100000000     0          
C321     C      0.887300000000     0.081200000000     0.310300000000     0          
H322     H      0.896700000000     0.048700000000     0.309000000000     0          
C323     C      0.881800000000     0.844600000000     0.644500000000     0          
C324     C      0.890200000000     0.817000000000     0.604800000000     0          
H325     H      0.906300000000     0.829700000000     0.579100000000     0          
C326     C      0.874500000000     0.770600000000     0.603300000000     0          
H327     H      0.880100000000     0.752200000000     0.576800000000     0          
C328     C      0.850400000000     0.751700000000     0.641600000000     0          
H329     H      0.839900000000     0.720600000000     0.640700000000     0          
C330     C      0.842000000000     0.779200000000     0.681300000000     0          
H331     H      0.825800000000     0.766500000000     0.707000000000     0          
C332     C      0.857700000000     0.825600000000     0.682800000000     0          
C333     C      0.862300000000     0.895000000000     0.728900000000     0          
H334     H      0.853400000000     0.911900000000     0.756900000000     0          
C335     C      0.887300000000     0.918800000000     0.689700000000     0          
H336     H      0.896700000000     0.951300000000     0.691000000000     0          
C337     C      0.644500000000     0.844600000000     0.881800000000     0          
C338     C      0.604800000000     0.817000000000     0.890200000000     0          
H339     H      0.579100000000     0.829700000000     0.906300000000     0          
C340     C      0.603300000000     0.770600000000     0.874500000000     0          
H341     H      0.576800000000     0.752200000000     0.880100000000     0          
C342     C      0.641600000000     0.751700000000     0.850400000000     0          
H343     H      0.640700000000     0.720600000000     0.839900000000     0          
C344     C      0.681300000000     0.779200000000     0.842000000000     0          
H345     H      0.707000000000     0.766500000000     0.825800000000     0          
C346     C      0.682800000000     0.825600000000     0.857700000000     0          
C347     C      0.728900000000     0.895000000000     0.862300000000     0          
H348     H      0.756900000000     0.911900000000     0.853400000000     0          
C349     C      0.689700000000     0.918800000000     0.887300000000     0          
H350     H      0.691000000000     0.951300000000     0.896700000000     0          
C351     C      0.355500000000     0.155400000000     0.881800000000     0          
C352     C      0.395200000000     0.183000000000     0.890200000000     0          
H353     H      0.420900000000     0.170300000000     0.906300000000     0          
C354     C      0.396700000000     0.229400000000     0.874500000000     0          
H355     H      0.423200000000     0.247800000000     0.880100000000     0          
C356     C      0.358400000000     0.248300000000     0.850400000000     0          
H357     H      0.359300000000     0.279400000000     0.839900000000     0          
C358     C      0.318700000000     0.220800000000     0.842000000000     0          
H359     H      0.293000000000     0.233500000000     0.825800000000     0          
C360     C      0.317200000000     0.174400000000     0.857700000000     0          
C361     C      0.271100000000     0.105000000000     0.862300000000     0          
H362     H      0.243100000000     0.088100000000     0.853400000000     0          
C363     C      0.310300000000     0.081200000000     0.887300000000     0          
H364     H      0.309000000000     0.048700000000     0.896700000000     0          
C365     C      0.355500000000     0.844600000000     0.118200000000     0          
C366     C      0.395200000000     0.817000000000     0.109800000000     0          
H367     H      0.420900000000     0.829700000000     0.093700000000     0          
C368     C      0.396700000000     0.770600000000     0.125500000000     0          
H369     H      0.423200000000     0.752200000000     0.119900000000     0          
C370     C      0.358400000000     0.751700000000     0.149600000000     0          
H371     H      0.359300000000     0.720600000000     0.160100000000     0          
C372     C      0.318700000000     0.779200000000     0.158000000000     0          
H373     H      0.293000000000     0.766500000000     0.174200000000     0          
C374     C      0.317200000000     0.825600000000     0.142300000000     0          
C375     C      0.271100000000     0.895000000000     0.137700000000     0          
H376     H      0.243100000000     0.911900000000     0.146600000000     0          
C377     C      0.310300000000     0.918800000000     0.112700000000     0          
H378     H      0.309000000000     0.951300000000     0.103300000000     0          
C379     C      0.644500000000     0.155400000000     0.118200000000     0          
C380     C      0.604800000000     0.183000000000     0.109800000000     0          
H381     H      0.579100000000     0.170300000000     0.093700000000     0          
C382     C      0.603300000000     0.229400000000     0.125500000000     0          
H383     H      0.576800000000     0.247800000000     0.119900000000     0          
C384     C      0.641600000000     0.248300000000     0.149600000000     0          
H385     H      0.640700000000     0.279400000000     0.160100000000     0          
C386     C      0.681300000000     0.220800000000     0.158000000000     0          
H387     H      0.707000000000     0.233500000000     0.174200000000     0          
C388     C      0.682800000000     0.174400000000     0.142300000000     0          
C389     C      0.728900000000     0.105000000000     0.137700000000     0          
H390     H      0.756900000000     0.088100000000     0.146600000000     0          
C391     C      0.689700000000     0.081200000000     0.112700000000     0          
H392     H      0.691000000000     0.048700000000     0.103300000000     0          
C393     C      0.881800000000     0.644500000000     0.844600000000     0          
C394     C      0.890200000000     0.604800000000     0.817000000000     0          
H395     H      0.906300000000     0.579100000000     0.829700000000     0          
C396     C      0.874500000000     0.603300000000     0.770600000000     0          
H397     H      0.880100000000     0.576800000000     0.752200000000     0          
C398     C      0.850400000000     0.641600000000     0.751700000000     0          
H399     H      0.839900000000     0.640700000000     0.720600000000     0          
C400     C      0.842000000000     0.681300000000     0.779200000000     0          
H401     H      0.825800000000     0.707000000000     0.766500000000     0          
C402     C      0.857700000000     0.682800000000     0.825600000000     0          
C403     C      0.862300000000     0.728900000000     0.895000000000     0          
H404     H      0.853400000000     0.756900000000     0.911900000000     0          
C405     C      0.887300000000     0.689700000000     0.918800000000     0          
H406     H      0.896700000000     0.691000000000     0.951300000000     0          
C407     C      0.881800000000     0.355500000000     0.155400000000     0          
C408     C      0.890200000000     0.395200000000     0.183000000000     0          
H409     H      0.906300000000     0.420900000000     0.170300000000     0          
C410     C      0.874500000000     0.396700000000     0.229400000000     0          
H411     H      0.880100000000     0.423200000000     0.247800000000     0          
C412     C      0.850400000000     0.358400000000     0.248300000000     0          
H413     H      0.839900000000     0.359300000000     0.279400000000     0          
C414     C      0.842000000000     0.318700000000     0.220800000000     0          
H415     H      0.825800000000     0.293000000000     0.233500000000     0          
C416     C      0.857700000000     0.317200000000     0.174400000000     0          
C417     C      0.862300000000     0.271100000000     0.105000000000     0          
H418     H      0.853400000000     0.243100000000     0.088100000000     0          
C419     C      0.887300000000     0.310300000000     0.081200000000     0          
H420     H      0.896700000000     0.309000000000     0.048700000000     0          
C421     C      0.118200000000     0.355500000000     0.844600000000     0          
C422     C      0.109800000000     0.395200000000     0.817000000000     0          
H423     H      0.093700000000     0.420900000000     0.829700000000     0          
C424     C      0.125500000000     0.396700000000     0.770600000000     0          
H425     H      0.119900000000     0.423200000000     0.752200000000     0          
C426     C      0.149600000000     0.358400000000     0.751700000000     0          
H427     H      0.160100000000     0.359300000000     0.720600000000     0          
C428     C      0.158000000000     0.318700000000     0.779200000000     0          
H429     H      0.174200000000     0.293000000000     0.766500000000     0          
C430     C      0.142300000000     0.317200000000     0.825600000000     0          
C431     C      0.137700000000     0.271100000000     0.895000000000     0          
H432     H      0.146600000000     0.243100000000     0.911900000000     0          
C433     C      0.112700000000     0.310300000000     0.918800000000     0          
H434     H      0.103300000000     0.309000000000     0.951300000000     0          
C435     C      0.118200000000     0.644500000000     0.155400000000     0          
C436     C      0.109800000000     0.604800000000     0.183000000000     0          
H437     H      0.093700000000     0.579100000000     0.170300000000     0          
C438     C      0.125500000000     0.603300000000     0.229400000000     0          
H439     H      0.119900000000     0.576800000000     0.247800000000     0          
C440     C      0.149600000000     0.641600000000     0.248300000000     0          
H441     H      0.160100000000     0.640700000000     0.279400000000     0          
C442     C      0.158000000000     0.681300000000     0.220800000000     0          
H443     H      0.174200000000     0.707000000000     0.233500000000     0          
C444     C      0.142300000000     0.682800000000     0.174400000000     0          
C445     C      0.137700000000     0.728900000000     0.105000000000     0          
H446     H      0.146600000000     0.756900000000     0.088100000000     0          
C447     C      0.112700000000     0.689700000000     0.081200000000     0          
H448     H      0.103300000000     0.691000000000     0.048700000000     0          
C449     C      0.844600000000     0.881800000000     0.644500000000     0          
C450     C      0.817000000000     0.890200000000     0.604800000000     0          
H451     H      0.829700000000     0.906300000000     0.579100000000     0          
C452     C      0.770600000000     0.874500000000     0.603300000000     0          
H453     H      0.752200000000     0.880100000000     0.576800000000     0          
C454     C      0.751700000000     0.850400000000     0.641600000000     0          
H455     H      0.720600000000     0.839900000000     0.640700000000     0          
C456     C      0.779200000000     0.842000000000     0.681300000000     0          
H457     H      0.766500000000     0.825800000000     0.707000000000     0          
C458     C      0.825600000000     0.857700000000     0.682800000000     0          
C459     C      0.895000000000     0.862300000000     0.728900000000     0          
H460     H      0.911900000000     0.853400000000     0.756900000000     0          
C461     C      0.918800000000     0.887300000000     0.689700000000     0          
H462     H      0.951300000000     0.896700000000     0.691000000000     0          
C463     C      0.155400000000     0.881800000000     0.355500000000     0          
C464     C      0.183000000000     0.890200000000     0.395200000000     0          
H465     H      0.170300000000     0.906300000000     0.420900000000     0          
C466     C      0.229400000000     0.874500000000     0.396700000000     0          
H467     H      0.247800000000     0.880100000000     0.423200000000     0          
C468     C      0.248300000000     0.850400000000     0.358400000000     0          
H469     H      0.279400000000     0.839900000000     0.359300000000     0          
C470     C      0.220800000000     0.842000000000     0.318700000000     0          
H471     H      0.233500000000     0.825800000000     0.293000000000     0          
C472     C      0.174400000000     0.857700000000     0.317200000000     0          
C473     C      0.105000000000     0.862300000000     0.271100000000     0          
H474     H      0.088100000000     0.853400000000     0.243100000000     0          
C475     C      0.081200000000     0.887300000000     0.310300000000     0          
H476     H      0.048700000000     0.896700000000     0.309000000000     0          
C477     C      0.844600000000     0.118200000000     0.355500000000     0          
C478     C      0.817000000000     0.109800000000     0.395200000000     0          
H479     H      0.829700000000     0.093700000000     0.420900000000     0          
C480     C      0.770600000000     0.125500000000     0.396700000000     0          
H481     H      0.752200000000     0.119900000000     0.423200000000     0          
C482     C      0.751700000000     0.149600000000     0.358400000000     0          
H483     H      0.720600000000     0.160100000000     0.359300000000     0          
C484     C      0.779200000000     0.158000000000     0.318700000000     0          
H485     H      0.766500000000     0.174200000000     0.293000000000     0          
C486     C      0.825600000000     0.142300000000     0.317200000000     0          
C487     C      0.895000000000     0.137700000000     0.271100000000     0          
H488     H      0.911900000000     0.146600000000     0.243100000000     0          
C489     C      0.918800000000     0.112700000000     0.310300000000     0          
H490     H      0.951300000000     0.103300000000     0.309000000000     0          
C491     C      0.155400000000     0.118200000000     0.644500000000     0          
C492     C      0.183000000000     0.109800000000     0.604800000000     0          
H493     H      0.170300000000     0.093700000000     0.579100000000     0          
C494     C      0.229400000000     0.125500000000     0.603300000000     0          
H495     H      0.247800000000     0.119900000000     0.576800000000     0          
C496     C      0.248300000000     0.149600000000     0.641600000000     0          
H497     H      0.279400000000     0.160100000000     0.640700000000     0          
C498     C      0.220800000000     0.158000000000     0.681300000000     0          
H499     H      0.233500000000     0.174200000000     0.707000000000     0          
C500     C      0.174400000000     0.142300000000     0.682800000000     0          
C501     C      0.105000000000     0.137700000000     0.728900000000     0          
H502     H      0.088100000000     0.146600000000     0.756900000000     0          
C503     C      0.081200000000     0.112700000000     0.689700000000     0          
H504     H      0.048700000000     0.103300000000     0.691000000000     0          
C505     C      0.844600000000     0.644500000000     0.118200000000     0          
C506     C      0.817000000000     0.604800000000     0.109800000000     0          
H507     H      0.829700000000     0.579100000000     0.093700000000     0          
C508     C      0.770600000000     0.603300000000     0.125500000000     0          
H509     H      0.752200000000     0.576800000000     0.119900000000     0          
C510     C      0.751700000000     0.641600000000     0.149600000000     0          
H511     H      0.720600000000     0.640700000000     0.160100000000     0          
C512     C      0.779200000000     0.681300000000     0.158000000000     0          
H513     H      0.766500000000     0.707000000000     0.174200000000     0          
C514     C      0.825600000000     0.682800000000     0.142300000000     0          
C515     C      0.895000000000     0.728900000000     0.137700000000     0          
H516     H      0.911900000000     0.756900000000     0.146600000000     0          
C517     C      0.918800000000     0.689700000000     0.112700000000     0          
H518     H      0.951300000000     0.691000000000     0.103300000000     0          
C519     C      0.155400000000     0.355500000000     0.118200000000     0          
C520     C      0.183000000000     0.395200000000     0.109800000000     0          
H521     H      0.170300000000     0.420900000000     0.093700000000     0          
C522     C      0.229400000000     0.396700000000     0.125500000000     0          
H523     H      0.247800000000     0.423200000000     0.119900000000     0          
C524     C      0.248300000000     0.358400000000     0.149600000000     0          
H525     H      0.279400000000     0.359300000000     0.160100000000     0          
C526     C      0.220800000000     0.318700000000     0.158000000000     0          
H527     H      0.233500000000     0.293000000000     0.174200000000     0          
C528     C      0.174400000000     0.317200000000     0.142300000000     0          
C529     C      0.105000000000     0.271100000000     0.137700000000     0          
H530     H      0.088100000000     0.243100000000     0.146600000000     0          
C531     C      0.081200000000     0.310300000000     0.112700000000     0          
H532     H      0.048700000000     0.309000000000     0.103300000000     0          
C533     C      0.844600000000     0.355500000000     0.881800000000     0          
C534     C      0.817000000000     0.395200000000     0.890200000000     0          
H535     H      0.829700000000     0.420900000000     0.906300000000     0          
C536     C      0.770600000000     0.396700000000     0.874500000000     0          
H537     H      0.752200000000     0.423200000000     0.880100000000     0          
C538     C      0.751700000000     0.358400000000     0.850400000000     0          
H539     H      0.720600000000     0.359300000000     0.839900000000     0          
C540     C      0.779200000000     0.318700000000     0.842000000000     0          
H541     H      0.766500000000     0.293000000000     0.825800000000     0          
C542     C      0.825600000000     0.317200000000     0.857700000000     0          
C543     C      0.895000000000     0.271100000000     0.862300000000     0          
H544     H      0.911900000000     0.243100000000     0.853400000000     0          
C545     C      0.918800000000     0.310300000000     0.887300000000     0          
H546     H      0.951300000000     0.309000000000     0.896700000000     0          
C547     C      0.155400000000     0.644500000000     0.881800000000     0          
C548     C      0.183000000000     0.604800000000     0.890200000000     0          
H549     H      0.170300000000     0.579100000000     0.906300000000     0          
C550     C      0.229400000000     0.603300000000     0.874500000000     0          
H551     H      0.247800000000     0.576800000000     0.880100000000     0          
C552     C      0.248300000000     0.641600000000     0.850400000000     0          
H553     H      0.279400000000     0.640700000000     0.839900000000     0          
C554     C      0.220800000000     0.681300000000     0.842000000000     0          
H555     H      0.233500000000     0.707000000000     0.825800000000     0          
C556     C      0.174400000000     0.682800000000     0.857700000000     0          
C557     C      0.105000000000     0.728900000000     0.862300000000     0          
H558     H      0.088100000000     0.756900000000     0.853400000000     0          
C559     C      0.081200000000     0.689700000000     0.887300000000     0          
H560     H      0.048700000000     0.691000000000     0.896700000000     0          
C561     C      0.644500000000     0.881800000000     0.155400000000     0          
C562     C      0.604800000000     0.890200000000     0.183000000000     0          
H563     H      0.579100000000     0.906300000000     0.170300000000     0          
C564     C      0.603300000000     0.874500000000     0.229400000000     0          
H565     H      0.576800000000     0.880100000000     0.247800000000     0          
C566     C      0.641600000000     0.850400000000     0.248300000000     0          
H567     H      0.640700000000     0.839900000000     0.279400000000     0          
C568     C      0.681300000000     0.842000000000     0.220800000000     0          
H569     H      0.707000000000     0.825800000000     0.233500000000     0          
C570     C      0.682800000000     0.857700000000     0.174400000000     0          
C571     C      0.728900000000     0.862300000000     0.105000000000     0          
H572     H      0.756900000000     0.853400000000     0.088100000000     0          
C573     C      0.689700000000     0.887300000000     0.081200000000     0          
H574     H      0.691000000000     0.896700000000     0.048700000000     0          
C575     C      0.355500000000     0.881800000000     0.844600000000     0          
C576     C      0.395200000000     0.890200000000     0.817000000000     0          
H577     H      0.420900000000     0.906300000000     0.829700000000     0          
C578     C      0.396700000000     0.874500000000     0.770600000000     0          
H579     H      0.423200000000     0.880100000000     0.752200000000     0          
C580     C      0.358400000000     0.850400000000     0.751700000000     0          
H581     H      0.359300000000     0.839900000000     0.720600000000     0          
C582     C      0.318700000000     0.842000000000     0.779200000000     0          
H583     H      0.293000000000     0.825800000000     0.766500000000     0          
C584     C      0.317200000000     0.857700000000     0.825600000000     0          
C585     C      0.271100000000     0.862300000000     0.895000000000     0          
H586     H      0.243100000000     0.853400000000     0.911900000000     0          
C587     C      0.310300000000     0.887300000000     0.918800000000     0          
H588     H      0.309000000000     0.896700000000     0.951300000000     0          
C589     C      0.355500000000     0.118200000000     0.155400000000     0          
C590     C      0.395200000000     0.109800000000     0.183000000000     0          
H591     H      0.420900000000     0.093700000000     0.170300000000     0          
C592     C      0.396700000000     0.125500000000     0.229400000000     0          
H593     H      0.423200000000     0.119900000000     0.247800000000     0          
C594     C      0.358400000000     0.149600000000     0.248300000000     0          
H595     H      0.359300000000     0.160100000000     0.279400000000     0          
C596     C      0.318700000000     0.158000000000     0.220800000000     0          
H597     H      0.293000000000     0.174200000000     0.233500000000     0          
C598     C      0.317200000000     0.142300000000     0.174400000000     0          
C599     C      0.271100000000     0.137700000000     0.105000000000     0          
H600     H      0.243100000000     0.146600000000     0.088100000000     0          
C601     C      0.310300000000     0.112700000000     0.081200000000     0          
H602     H      0.309000000000     0.103300000000     0.048700000000     0          
C603     C      0.644500000000     0.118200000000     0.844600000000     0          
C604     C      0.604800000000     0.109800000000     0.817000000000     0          
H605     H      0.579100000000     0.093700000000     0.829700000000     0          
C606     C      0.603300000000     0.125500000000     0.770600000000     0          
H607     H      0.576800000000     0.119900000000     0.752200000000     0          
C608     C      0.641600000000     0.149600000000     0.751700000000     0          
H609     H      0.640700000000     0.160100000000     0.720600000000     0          
C610     C      0.681300000000     0.158000000000     0.779200000000     0          
H611     H      0.707000000000     0.174200000000     0.766500000000     0          
C612     C      0.682800000000     0.142300000000     0.825600000000     0          
C613     C      0.728900000000     0.137700000000     0.895000000000     0          
H614     H      0.756900000000     0.146600000000     0.911900000000     0          
C615     C      0.689700000000     0.112700000000     0.918800000000     0          
H616     H      0.691000000000     0.103300000000     0.951300000000     0          
C617     C      0.881800000000     0.844600000000     0.355500000000     0          
C618     C      0.890200000000     0.817000000000     0.395200000000     0          
H619     H      0.906300000000     0.829700000000     0.420900000000     0          
C620     C      0.874500000000     0.770600000000     0.396700000000     0          
H621     H      0.880100000000     0.752200000000     0.423200000000     0          
C622     C      0.850400000000     0.751700000000     0.358400000000     0          
H623     H      0.839900000000     0.720600000000     0.359300000000     0          
C624     C      0.842000000000     0.779200000000     0.318700000000     0          
H625     H      0.825800000000     0.766500000000     0.293000000000     0          
C626     C      0.857700000000     0.825600000000     0.317200000000     0          
C627     C      0.862300000000     0.895000000000     0.271100000000     0          
H628     H      0.853400000000     0.911900000000     0.243100000000     0          
C629     C      0.887300000000     0.918800000000     0.310300000000     0          
H630     H      0.896700000000     0.951300000000     0.309000000000     0          
C631     C      0.881800000000     0.155400000000     0.644500000000     0          
C632     C      0.890200000000     0.183000000000     0.604800000000     0          
H633     H      0.906300000000     0.170300000000     0.579100000000     0          
C634     C      0.874500000000     0.229400000000     0.603300000000     0          
H635     H      0.880100000000     0.247800000000     0.576800000000     0          
C636     C      0.850400000000     0.248300000000     0.641600000000     0          
H637     H      0.839900000000     0.279400000000     0.640700000000     0          
C638     C      0.842000000000     0.220800000000     0.681300000000     0          
H639     H      0.825800000000     0.233500000000     0.707000000000     0          
C640     C      0.857700000000     0.174400000000     0.682800000000     0          
C641     C      0.862300000000     0.105000000000     0.728900000000     0          
H642     H      0.853400000000     0.088100000000     0.756900000000     0          
C643     C      0.887300000000     0.081200000000     0.689700000000     0          
H644     H      0.896700000000     0.048700000000     0.691000000000     0          
C645     C      0.118200000000     0.844600000000     0.644500000000     0          
C646     C      0.109800000000     0.817000000000     0.604800000000     0          
H647     H      0.093700000000     0.829700000000     0.579100000000     0          
C648     C      0.125500000000     0.770600000000     0.603300000000     0          
H649     H      0.119900000000     0.752200000000     0.576800000000     0          
C650     C      0.149600000000     0.751700000000     0.641600000000     0          
H651     H      0.160100000000     0.720600000000     0.640700000000     0          
C652     C      0.158000000000     0.779200000000     0.681300000000     0          
H653     H      0.174200000000     0.766500000000     0.707000000000     0          
C654     C      0.142300000000     0.825600000000     0.682800000000     0          
C655     C      0.137700000000     0.895000000000     0.728900000000     0          
H656     H      0.146600000000     0.911900000000     0.756900000000     0          
C657     C      0.112700000000     0.918800000000     0.689700000000     0          
H658     H      0.103300000000     0.951300000000     0.691000000000     0          
C659     C      0.118200000000     0.155400000000     0.355500000000     0          
C660     C      0.109800000000     0.183000000000     0.395200000000     0          
H661     H      0.093700000000     0.170300000000     0.420900000000     0          
C662     C      0.125500000000     0.229400000000     0.396700000000     0          
H663     H      0.119900000000     0.247800000000     0.423200000000     0          
C664     C      0.149600000000     0.248300000000     0.358400000000     0          
H665     H      0.160100000000     0.279400000000     0.359300000000     0          
C666     C      0.158000000000     0.220800000000     0.318700000000     0          
H667     H      0.174200000000     0.233500000000     0.293000000000     0          
C668     C      0.142300000000     0.174400000000     0.317200000000     0          
C669     C      0.137700000000     0.105000000000     0.271100000000     0          
H670     H      0.146600000000     0.088100000000     0.243100000000     0          
C671     C      0.112700000000     0.081200000000     0.310300000000     0          
H672     H      0.103300000000     0.048700000000     0.309000000000     0          
C673     C      0.500000000000     0.000000000000     0.162000000000     0          
C674     C      0.500000000000     0.000000000000     0.210700000000     0          
C675     C      0.500000000000     0.000000000000     0.301300000000     0          
H676     H      0.500000000000     0.000000000000     0.334100000000     0          
C677     C      0.500000000000     0.000000000000     0.838000000000     0          
C678     C      0.500000000000     0.000000000000     0.789300000000     0          
C679     C      0.500000000000     0.000000000000     0.698700000000     0          
H680     H      0.500000000000     0.000000000000     0.665900000000     0          
C681     C      0.162000000000     0.500000000000     0.000000000000     0          
C682     C      0.210700000000     0.500000000000     0.000000000000     0          
C683     C      0.301300000000     0.500000000000     0.000000000000     0          
H684     H      0.334100000000     0.500000000000     0.000000000000     0          
C685     C      0.838000000000     0.500000000000     0.000000000000     0          
C686     C      0.789300000000     0.500000000000     0.000000000000     0          
C687     C      0.698700000000     0.500000000000     0.000000000000     0          
H688     H      0.665900000000     0.500000000000     0.000000000000     0          
C689     C      0.000000000000     0.162000000000     0.500000000000     0          
C690     C      0.000000000000     0.210700000000     0.500000000000     0          
C691     C      0.000000000000     0.301300000000     0.500000000000     0          
H692     H      0.000000000000     0.334100000000     0.500000000000     0          
C693     C      0.000000000000     0.838000000000     0.500000000000     0          
C694     C      0.000000000000     0.789300000000     0.500000000000     0          
C695     C      0.000000000000     0.698700000000     0.500000000000     0          
H696     H      0.000000000000     0.665900000000     0.500000000000     0          
C697     C      0.000000000000     0.500000000000     0.838000000000     0          
C698     C      0.000000000000     0.500000000000     0.789300000000     0          
C699     C      0.000000000000     0.500000000000     0.698700000000     0          
H700     H      0.000000000000     0.500000000000     0.665900000000     0          
C701     C      0.000000000000     0.500000000000     0.162000000000     0          
C702     C      0.000000000000     0.500000000000     0.210700000000     0          
C703     C      0.000000000000     0.500000000000     0.301300000000     0          
H704     H      0.000000000000     0.500000000000     0.334100000000     0          
C705     C      0.500000000000     0.162000000000     0.000000000000     0          
C706     C      0.500000000000     0.210700000000     0.000000000000     0          
C707     C      0.500000000000     0.301300000000     0.000000000000     0          
H708     H      0.500000000000     0.334100000000     0.000000000000     0          
C709     C      0.500000000000     0.838000000000     0.000000000000     0          
C710     C      0.500000000000     0.789300000000     0.000000000000     0          
C711     C      0.500000000000     0.698700000000     0.000000000000     0          
H712     H      0.500000000000     0.665900000000     0.000000000000     0          
C713     C      0.162000000000     0.000000000000     0.500000000000     0          
C714     C      0.210700000000     0.000000000000     0.500000000000     0          
C715     C      0.301300000000     0.000000000000     0.500000000000     0          
H716     H      0.334100000000     0.000000000000     0.500000000000     0          
C717     C      0.838000000000     0.000000000000     0.500000000000     0          
C718     C      0.789300000000     0.000000000000     0.500000000000     0          
C719     C      0.698700000000     0.000000000000     0.500000000000     0          
H720     H      0.665900000000     0.000000000000     0.500000000000     0          
C721     C      0.500000000000     0.042600000000     0.233600000000     0          
H722     H      0.500000000000     0.070400000000     0.216200000000     0          
C723     C      0.500000000000     0.044700000000     0.282200000000     0          
H724     H      0.500000000000     0.072400000000     0.299700000000     0          
O725     O      0.500000000000     0.050240000000     0.138300000000     0          
C726     C      0.500000000000     0.957400000000     0.233600000000     0          
H727     H      0.500000000000     0.929600000000     0.216200000000     0          
C728     C      0.500000000000     0.955300000000     0.282200000000     0          
H729     H      0.500000000000     0.927600000000     0.299700000000     0          
O730     O      0.500000000000     0.949760000000     0.138300000000     0          
C731     C      0.500000000000     0.042600000000     0.766400000000     0          
H732     H      0.500000000000     0.070400000000     0.783800000000     0          
C733     C      0.500000000000     0.044700000000     0.717800000000     0          
H734     H      0.500000000000     0.072400000000     0.700300000000     0          
O735     O      0.500000000000     0.050240000000     0.861700000000     0          
C736     C      0.500000000000     0.957400000000     0.766400000000     0          
H737     H      0.500000000000     0.929600000000     0.783800000000     0          
C738     C      0.500000000000     0.955300000000     0.717800000000     0          
H739     H      0.500000000000     0.927600000000     0.700300000000     0          
O740     O      0.500000000000     0.949760000000     0.861700000000     0          
C741     C      0.233600000000     0.500000000000     0.042600000000     0          
H742     H      0.216200000000     0.500000000000     0.070400000000     0          
C743     C      0.282200000000     0.500000000000     0.044700000000     0          
H744     H      0.299700000000     0.500000000000     0.072400000000     0          
O745     O      0.138300000000     0.500000000000     0.050240000000     0          
C746     C      0.233600000000     0.500000000000     0.957400000000     0          
H747     H      0.216200000000     0.500000000000     0.929600000000     0          
C748     C      0.282200000000     0.500000000000     0.955300000000     0          
H749     H      0.299700000000     0.500000000000     0.927600000000     0          
O750     O      0.138300000000     0.500000000000     0.949760000000     0          
C751     C      0.766400000000     0.500000000000     0.042600000000     0          
H752     H      0.783800000000     0.500000000000     0.070400000000     0          
C753     C      0.717800000000     0.500000000000     0.044700000000     0          
H754     H      0.700300000000     0.500000000000     0.072400000000     0          
O755     O      0.861700000000     0.500000000000     0.050240000000     0          
C756     C      0.766400000000     0.500000000000     0.957400000000     0          
H757     H      0.783800000000     0.500000000000     0.929600000000     0          
C758     C      0.717800000000     0.500000000000     0.955300000000     0          
H759     H      0.700300000000     0.500000000000     0.927600000000     0          
O760     O      0.861700000000     0.500000000000     0.949760000000     0          
C761     C      0.042600000000     0.233600000000     0.500000000000     0          
H762     H      0.070400000000     0.216200000000     0.500000000000     0          
C763     C      0.044700000000     0.282200000000     0.500000000000     0          
H764     H      0.072400000000     0.299700000000     0.500000000000     0          
O765     O      0.050240000000     0.138300000000     0.500000000000     0          
C766     C      0.957400000000     0.233600000000     0.500000000000     0          
H767     H      0.929600000000     0.216200000000     0.500000000000     0          
C768     C      0.955300000000     0.282200000000     0.500000000000     0          
H769     H      0.927600000000     0.299700000000     0.500000000000     0          
O770     O      0.949760000000     0.138300000000     0.500000000000     0          
C771     C      0.042600000000     0.766400000000     0.500000000000     0          
H772     H      0.070400000000     0.783800000000     0.500000000000     0          
C773     C      0.044700000000     0.717800000000     0.500000000000     0          
H774     H      0.072400000000     0.700300000000     0.500000000000     0          
O775     O      0.050240000000     0.861700000000     0.500000000000     0          
C776     C      0.957400000000     0.766400000000     0.500000000000     0          
H777     H      0.929600000000     0.783800000000     0.500000000000     0          
C778     C      0.955300000000     0.717800000000     0.500000000000     0          
H779     H      0.927600000000     0.700300000000     0.500000000000     0          
O780     O      0.949760000000     0.861700000000     0.500000000000     0          
C781     C      0.042600000000     0.500000000000     0.766400000000     0          
H782     H      0.070400000000     0.500000000000     0.783800000000     0          
C783     C      0.044700000000     0.500000000000     0.717800000000     0          
H784     H      0.072400000000     0.500000000000     0.700300000000     0          
O785     O      0.050240000000     0.500000000000     0.861700000000     0          
C786     C      0.957400000000     0.500000000000     0.766400000000     0          
H787     H      0.929600000000     0.500000000000     0.783800000000     0          
C788     C      0.955300000000     0.500000000000     0.717800000000     0          
H789     H      0.927600000000     0.500000000000     0.700300000000     0          
O790     O      0.949760000000     0.500000000000     0.861700000000     0          
C791     C      0.042600000000     0.500000000000     0.233600000000     0          
H792     H      0.070400000000     0.500000000000     0.216200000000     0          
C793     C      0.044700000000     0.500000000000     0.282200000000     0          
H794     H      0.072400000000     0.500000000000     0.299700000000     0          
O795     O      0.050240000000     0.500000000000     0.138300000000     0          
C796     C      0.957400000000     0.500000000000     0.233600000000     0          
H797     H      0.929600000000     0.500000000000     0.216200000000     0          
C798     C      0.955300000000     0.500000000000     0.282200000000     0          
H799     H      0.927600000000     0.500000000000     0.299700000000     0          
O800     O      0.949760000000     0.500000000000     0.138300000000     0          
C801     C      0.500000000000     0.233600000000     0.957400000000     0          
H802     H      0.500000000000     0.216200000000     0.929600000000     0          
C803     C      0.500000000000     0.282200000000     0.955300000000     0          
H804     H      0.500000000000     0.299700000000     0.927600000000     0          
O805     O      0.500000000000     0.138300000000     0.949760000000     0          
C806     C      0.500000000000     0.233600000000     0.042600000000     0          
H807     H      0.500000000000     0.216200000000     0.070400000000     0          
C808     C      0.500000000000     0.282200000000     0.044700000000     0          
H809     H      0.500000000000     0.299700000000     0.072400000000     0          
O810     O      0.500000000000     0.138300000000     0.050240000000     0          
C811     C      0.500000000000     0.766400000000     0.957400000000     0          
H812     H      0.500000000000     0.783800000000     0.929600000000     0          
C813     C      0.500000000000     0.717800000000     0.955300000000     0          
H814     H      0.500000000000     0.700300000000     0.927600000000     0          
O815     O      0.500000000000     0.861700000000     0.949760000000     0          
C816     C      0.500000000000     0.766400000000     0.042600000000     0          
H817     H      0.500000000000     0.783800000000     0.070400000000     0          
C818     C      0.500000000000     0.717800000000     0.044700000000     0          
H819     H      0.500000000000     0.700300000000     0.072400000000     0          
O820     O      0.500000000000     0.861700000000     0.050240000000     0          
C821     C      0.233600000000     0.042600000000     0.500000000000     0          
H822     H      0.216200000000     0.070400000000     0.500000000000     0          
C823     C      0.282200000000     0.044700000000     0.500000000000     0          
H824     H      0.299700000000     0.072400000000     0.500000000000     0          
O825     O      0.138300000000     0.050240000000     0.500000000000     0          
C826     C      0.233600000000     0.957400000000     0.500000000000     0          
H827     H      0.216200000000     0.929600000000     0.500000000000     0          
C828     C      0.282200000000     0.955300000000     0.500000000000     0          
H829     H      0.299700000000     0.927600000000     0.500000000000     0          
O830     O      0.138300000000     0.949760000000     0.500000000000     0          
C831     C      0.766400000000     0.042600000000     0.500000000000     0          
H832     H      0.783800000000     0.070400000000     0.500000000000     0          
C833     C      0.717800000000     0.044700000000     0.500000000000     0          
H834     H      0.700300000000     0.072400000000     0.500000000000     0          
O835     O      0.861700000000     0.050240000000     0.500000000000     0          
C836     C      0.766400000000     0.957400000000     0.500000000000     0          
H837     H      0.783800000000     0.929600000000     0.500000000000     0          
C838     C      0.717800000000     0.955300000000     0.500000000000     0          
H839     H      0.700300000000     0.927600000000     0.500000000000     0          
O840     O      0.861700000000     0.949760000000     0.500000000000     0          
C841     C      0.387300000000     0.077200000000     0.077200000000     0          
C842     C      0.350200000000     0.104300000000     0.104300000000     0          
C843     C      0.274100000000     0.149860000000     0.149860000000     0          
C844     C      0.231660000000     0.171340000000     0.171340000000     0          
O845     O      0.374340000000     0.047260000000     0.047260000000     0          
O846     O      0.431100000000     0.088180000000     0.088180000000     0          
C847     C      0.612700000000     0.922800000000     0.077200000000     0          
C848     C      0.649800000000     0.895700000000     0.104300000000     0          
C849     C      0.725900000000     0.850140000000     0.149860000000     0          
C850     C      0.768340000000     0.828660000000     0.171340000000     0          
O851     O      0.625660000000     0.952740000000     0.047260000000     0          
O852     O      0.568900000000     0.911820000000     0.088180000000     0          
C853     C      0.612700000000     0.077200000000     0.922800000000     0          
C854     C      0.649800000000     0.104300000000     0.895700000000     0          
C855     C      0.725900000000     0.149860000000     0.850140000000     0          
C856     C      0.768340000000     0.171340000000     0.828660000000     0          
O857     O      0.625660000000     0.047260000000     0.952740000000     0          
O858     O      0.568900000000     0.088180000000     0.911820000000     0          
C859     C      0.387300000000     0.922800000000     0.922800000000     0          
C860     C      0.350200000000     0.895700000000     0.895700000000     0          
C861     C      0.274100000000     0.850140000000     0.850140000000     0          
C862     C      0.231660000000     0.828660000000     0.828660000000     0          
O863     O      0.374340000000     0.952740000000     0.952740000000     0          
O864     O      0.431100000000     0.911820000000     0.911820000000     0          
C865     C      0.077200000000     0.387300000000     0.077200000000     0          
C866     C      0.104300000000     0.350200000000     0.104300000000     0          
C867     C      0.149860000000     0.274100000000     0.149860000000     0          
C868     C      0.171340000000     0.231660000000     0.171340000000     0          
O869     O      0.047260000000     0.374340000000     0.047260000000     0          
O870     O      0.088180000000     0.431100000000     0.088180000000     0          
C871     C      0.077200000000     0.612700000000     0.922800000000     0          
C872     C      0.104300000000     0.649800000000     0.895700000000     0          
C873     C      0.149860000000     0.725900000000     0.850140000000     0          
C874     C      0.171340000000     0.768340000000     0.828660000000     0          
O875     O      0.047260000000     0.625660000000     0.952740000000     0          
O876     O      0.088180000000     0.568900000000     0.911820000000     0          
C877     C      0.922800000000     0.612700000000     0.077200000000     0          
C878     C      0.895700000000     0.649800000000     0.104300000000     0          
C879     C      0.850140000000     0.725900000000     0.149860000000     0          
C880     C      0.828660000000     0.768340000000     0.171340000000     0          
O881     O      0.952740000000     0.625660000000     0.047260000000     0          
O882     O      0.911820000000     0.568900000000     0.088180000000     0          
C883     C      0.922800000000     0.387300000000     0.922800000000     0          
C884     C      0.895700000000     0.350200000000     0.895700000000     0          
C885     C      0.850140000000     0.274100000000     0.850140000000     0          
C886     C      0.828660000000     0.231660000000     0.828660000000     0          
O887     O      0.952740000000     0.374340000000     0.952740000000     0          
O888     O      0.911820000000     0.431100000000     0.911820000000     0          
C889     C      0.077200000000     0.077200000000     0.387300000000     0          
C890     C      0.104300000000     0.104300000000     0.350200000000     0          
C891     C      0.149860000000     0.149860000000     0.274100000000     0          
C892     C      0.171340000000     0.171340000000     0.231660000000     0          
O893     O      0.047260000000     0.047260000000     0.374340000000     0          
O894     O      0.088180000000     0.088180000000     0.431100000000     0          
C895     C      0.922800000000     0.077200000000     0.612700000000     0          
C896     C      0.895700000000     0.104300000000     0.649800000000     0          
C897     C      0.850140000000     0.149860000000     0.725900000000     0          
C898     C      0.828660000000     0.171340000000     0.768340000000     0          
O899     O      0.952740000000     0.047260000000     0.625660000000     0          
O900     O      0.911820000000     0.088180000000     0.568900000000     0          
C901     C      0.077200000000     0.922800000000     0.612700000000     0          
C902     C      0.104300000000     0.895700000000     0.649800000000     0          
C903     C      0.149860000000     0.850140000000     0.725900000000     0          
C904     C      0.171340000000     0.828660000000     0.768340000000     0          
O905     O      0.047260000000     0.952740000000     0.625660000000     0          
O906     O      0.088180000000     0.911820000000     0.568900000000     0          
C907     C      0.922800000000     0.922800000000     0.387300000000     0          
C908     C      0.895700000000     0.895700000000     0.350200000000     0          
C909     C      0.850140000000     0.850140000000     0.274100000000     0          
C910     C      0.828660000000     0.828660000000     0.231660000000     0          
O911     O      0.952740000000     0.952740000000     0.374340000000     0          
O912     O      0.911820000000     0.911820000000     0.431100000000     0          
C913     C      0.077200000000     0.387300000000     0.922800000000     0          
C914     C      0.104300000000     0.350200000000     0.895700000000     0          
C915     C      0.149860000000     0.274100000000     0.850140000000     0          
C916     C      0.171340000000     0.231660000000     0.828660000000     0          
O917     O      0.047260000000     0.374340000000     0.952740000000     0          
O918     O      0.088180000000     0.431100000000     0.911820000000     0          
C919     C      0.922800000000     0.612700000000     0.922800000000     0          
C920     C      0.895700000000     0.649800000000     0.895700000000     0          
C921     C      0.850140000000     0.725900000000     0.850140000000     0          
C922     C      0.828660000000     0.768340000000     0.828660000000     0          
O923     O      0.952740000000     0.625660000000     0.952740000000     0          
O924     O      0.911820000000     0.568900000000     0.911820000000     0          
C925     C      0.077200000000     0.612700000000     0.077200000000     0          
C926     C      0.104300000000     0.649800000000     0.104300000000     0          
C927     C      0.149860000000     0.725900000000     0.149860000000     0          
C928     C      0.171340000000     0.768340000000     0.171340000000     0          
O929     O      0.047260000000     0.625660000000     0.047260000000     0          
O930     O      0.088180000000     0.568900000000     0.088180000000     0          
C931     C      0.922800000000     0.387300000000     0.077200000000     0          
C932     C      0.895700000000     0.350200000000     0.104300000000     0          
C933     C      0.850140000000     0.274100000000     0.149860000000     0          
C934     C      0.828660000000     0.231660000000     0.171340000000     0          
O935     O      0.952740000000     0.374340000000     0.047260000000     0          
O936     O      0.911820000000     0.431100000000     0.088180000000     0          
C937     C      0.387300000000     0.077200000000     0.922800000000     0          
C938     C      0.350200000000     0.104300000000     0.895700000000     0          
C939     C      0.274100000000     0.149860000000     0.850140000000     0          
C940     C      0.231660000000     0.171340000000     0.828660000000     0          
O941     O      0.374340000000     0.047260000000     0.952740000000     0          
O942     O      0.431100000000     0.088180000000     0.911820000000     0          
C943     C      0.612700000000     0.077200000000     0.077200000000     0          
C944     C      0.649800000000     0.104300000000     0.104300000000     0          
C945     C      0.725900000000     0.149860000000     0.149860000000     0          
C946     C      0.768340000000     0.171340000000     0.171340000000     0          
O947     O      0.625660000000     0.047260000000     0.047260000000     0          
O948     O      0.568900000000     0.088180000000     0.088180000000     0          
C949     C      0.612700000000     0.922800000000     0.922800000000     0          
C950     C      0.649800000000     0.895700000000     0.895700000000     0          
C951     C      0.725900000000     0.850140000000     0.850140000000     0          
C952     C      0.768340000000     0.828660000000     0.828660000000     0          
O953     O      0.625660000000     0.952740000000     0.952740000000     0          
O954     O      0.568900000000     0.911820000000     0.911820000000     0          
C955     C      0.387300000000     0.922800000000     0.077200000000     0          
C956     C      0.350200000000     0.895700000000     0.104300000000     0          
C957     C      0.274100000000     0.850140000000     0.149860000000     0          
C958     C      0.231660000000     0.828660000000     0.171340000000     0          
O959     O      0.374340000000     0.952740000000     0.047260000000     0          
O960     O      0.431100000000     0.911820000000     0.088180000000     0          
C961     C      0.077200000000     0.077200000000     0.612700000000     0          
C962     C      0.104300000000     0.104300000000     0.649800000000     0          
C963     C      0.149860000000     0.149860000000     0.725900000000     0          
C964     C      0.171340000000     0.171340000000     0.768340000000     0          
O965     O      0.047260000000     0.047260000000     0.625660000000     0          
O966     O      0.088180000000     0.088180000000     0.568900000000     0          
C967     C      0.077200000000     0.922800000000     0.387300000000     0          
C968     C      0.104300000000     0.895700000000     0.350200000000     0          
C969     C      0.149860000000     0.850140000000     0.274100000000     0          
C970     C      0.171340000000     0.828660000000     0.231660000000     0          
O971     O      0.047260000000     0.952740000000     0.374340000000     0          
O972     O      0.088180000000     0.911820000000     0.431100000000     0          
C973     C      0.922800000000     0.077200000000     0.387300000000     0          
C974     C      0.895700000000     0.104300000000     0.350200000000     0          
C975     C      0.850140000000     0.149860000000     0.274100000000     0          
C976     C      0.828660000000     0.171340000000     0.231660000000     0          
O977     O      0.952740000000     0.047260000000     0.374340000000     0          
O978     O      0.911820000000     0.088180000000     0.431100000000     0          
C979     C      0.922800000000     0.922800000000     0.612700000000     0          
C980     C      0.895700000000     0.895700000000     0.649800000000     0          
C981     C      0.850140000000     0.850140000000     0.725900000000     0          
C982     C      0.828660000000     0.828660000000     0.768340000000     0          
O983     O      0.952740000000     0.952740000000     0.625660000000     0          
O984     O      0.911820000000     0.911820000000     0.568900000000     0          
C985     C      0.211810000000     0.211810000000     0.152000000000     0          
H986     H      0.225800000000     0.225800000000     0.125700000000     0          
C987     C      0.788190000000     0.788190000000     0.152000000000     0          
H988     H      0.774200000000     0.774200000000     0.125700000000     0          
C989     C      0.788190000000     0.211810000000     0.848000000000     0          
H990     H      0.774200000000     0.225800000000     0.874300000000     0          
C991     C      0.211810000000     0.788190000000     0.848000000000     0          
H992     H      0.225800000000     0.774200000000     0.874300000000     0          
C993     C      0.152000000000     0.211810000000     0.211810000000     0          
H994     H      0.125700000000     0.225800000000     0.225800000000     0          
C995     C      0.152000000000     0.788190000000     0.788190000000     0          
H996     H      0.125700000000     0.774200000000     0.774200000000     0          
C997     C      0.848000000000     0.788190000000     0.211810000000     0          
H998     H      0.874300000000     0.774200000000     0.225800000000     0          
C999     C      0.848000000000     0.211810000000     0.788190000000     0          
H1000    H      0.874300000000     0.225800000000     0.774200000000     0          
C1001    C      0.211810000000     0.152000000000     0.211810000000     0          
H1002    H      0.225800000000     0.125700000000     0.225800000000     0          
C1003    C      0.788190000000     0.152000000000     0.788190000000     0          
H1004    H      0.774200000000     0.125700000000     0.774200000000     0          
C1005    C      0.211810000000     0.848000000000     0.788190000000     0          
H1006    H      0.225800000000     0.874300000000     0.774200000000     0          
C1007    C      0.788190000000     0.848000000000     0.211810000000     0          
H1008    H      0.774200000000     0.874300000000     0.225800000000     0          
C1009    C      0.211810000000     0.211810000000     0.848000000000     0          
H1010    H      0.225800000000     0.225800000000     0.874300000000     0          
C1011    C      0.788190000000     0.788190000000     0.848000000000     0          
H1012    H      0.774200000000     0.774200000000     0.874300000000     0          
C1013    C      0.211810000000     0.788190000000     0.152000000000     0          
H1014    H      0.225800000000     0.774200000000     0.125700000000     0          
C1015    C      0.788190000000     0.211810000000     0.152000000000     0          
H1016    H      0.774200000000     0.225800000000     0.125700000000     0          
C1017    C      0.211810000000     0.152000000000     0.788190000000     0          
H1018    H      0.225800000000     0.125700000000     0.774200000000     0          
C1019    C      0.788190000000     0.152000000000     0.211810000000     0          
H1020    H      0.774200000000     0.125700000000     0.225800000000     0          
C1021    C      0.788190000000     0.848000000000     0.788190000000     0          
H1022    H      0.774200000000     0.874300000000     0.774200000000     0          
C1023    C      0.211810000000     0.848000000000     0.211810000000     0          
H1024    H      0.225800000000     0.874300000000     0.225800000000     0          
C1025    C      0.152000000000     0.211810000000     0.788190000000     0          
H1026    H      0.125700000000     0.225800000000     0.774200000000     0          
C1027    C      0.152000000000     0.788190000000     0.211810000000     0          
H1028    H      0.125700000000     0.774200000000     0.225800000000     0          
C1029    C      0.848000000000     0.211810000000     0.211810000000     0          
H1030    H      0.874300000000     0.225800000000     0.225800000000     0          
C1031    C      0.848000000000     0.788190000000     0.788190000000     0          
H1032    H      0.874300000000     0.774200000000     0.774200000000     0          
O1033    O      0.457370000000     0.061360000000     0.000000000000     0          
H1034    H      0.437200000000     0.089400000000     0.000000000000     0          
O1035    O      0.542630000000     0.938640000000     0.000000000000     0          
H1036    H      0.562800000000     0.910600000000     0.000000000000     0          
O1037    O      0.542630000000     0.061360000000     0.000000000000     0          
H1038    H      0.562800000000     0.089400000000     0.000000000000     0          
O1039    O      0.457370000000     0.938640000000     0.000000000000     0          
H1040    H      0.437200000000     0.910600000000     0.000000000000     0          
O1041    O      0.000000000000     0.457370000000     0.061360000000     0          
H1042    H      0.000000000000     0.437200000000     0.089400000000     0          
O1043    O      0.000000000000     0.542630000000     0.938640000000     0          
H1044    H      0.000000000000     0.562800000000     0.910600000000     0          
O1045    O      0.000000000000     0.542630000000     0.061360000000     0          
H1046    H      0.000000000000     0.562800000000     0.089400000000     0          
O1047    O      0.000000000000     0.457370000000     0.938640000000     0          
H1048    H      0.000000000000     0.437200000000     0.910600000000     0          
O1049    O      0.061360000000     0.000000000000     0.457370000000     0          
H1050    H      0.089400000000     0.000000000000     0.437200000000     0          
O1051    O      0.938640000000     0.000000000000     0.542630000000     0          
H1052    H      0.910600000000     0.000000000000     0.562800000000     0          
O1053    O      0.061360000000     0.000000000000     0.542630000000     0          
H1054    H      0.089400000000     0.000000000000     0.562800000000     0          
O1055    O      0.938640000000     0.000000000000     0.457370000000     0          
H1056    H      0.910600000000     0.000000000000     0.437200000000     0          
O1057    O      0.061360000000     0.457370000000     0.000000000000     0          
H1058    H      0.089400000000     0.437200000000     0.000000000000     0          
O1059    O      0.938640000000     0.542630000000     0.000000000000     0          
H1060    H      0.910600000000     0.562800000000     0.000000000000     0          
O1061    O      0.061360000000     0.542630000000     0.000000000000     0          
H1062    H      0.089400000000     0.562800000000     0.000000000000     0          
O1063    O      0.938640000000     0.457370000000     0.000000000000     0          
H1064    H      0.910600000000     0.437200000000     0.000000000000     0          
O1065    O      0.457370000000     0.000000000000     0.938640000000     0          
H1066    H      0.437200000000     0.000000000000     0.910600000000     0          
O1067    O      0.542630000000     0.000000000000     0.061360000000     0          
H1068    H      0.562800000000     0.000000000000     0.089400000000     0          
O1069    O      0.542630000000     0.000000000000     0.938640000000     0          
H1070    H      0.562800000000     0.000000000000     0.910600000000     0          
O1071    O      0.457370000000     0.000000000000     0.061360000000     0          
H1072    H      0.437200000000     0.000000000000     0.089400000000     0          
O1073    O      0.000000000000     0.061360000000     0.542630000000     0          
H1074    H      0.000000000000     0.089400000000     0.562800000000     0          
O1075    O      0.000000000000     0.938640000000     0.457370000000     0          
H1076    H      0.000000000000     0.910600000000     0.437200000000     0          
O1077    O      0.000000000000     0.061360000000     0.457370000000     0          
H1078    H      0.000000000000     0.089400000000     0.437200000000     0          
O1079    O      0.000000000000     0.938640000000     0.542630000000     0          
H1080    H      0.000000000000     0.910600000000     0.562800000000     0          
Zr1081   Zr     0.413640000000     0.000000000000     0.000000000000     0          
Zr1082   Zr     0.586360000000     0.000000000000     0.000000000000     0          
Zr1083   Zr     0.000000000000     0.413640000000     0.000000000000     0          
Zr1084   Zr     0.000000000000     0.586360000000     0.000000000000     0          
Zr1085   Zr     0.000000000000     0.000000000000     0.413640000000     0          
Zr1086   Zr     0.000000000000     0.000000000000     0.586360000000     0          
Zr1087   Zr     0.500000000000     0.062130000000     0.062130000000     0          
Zr1088   Zr     0.500000000000     0.937870000000     0.062130000000     0          
Zr1089   Zr     0.500000000000     0.062130000000     0.937870000000     0          
Zr1090   Zr     0.500000000000     0.937870000000     0.937870000000     0          
Zr1091   Zr     0.062130000000     0.500000000000     0.062130000000     0          
Zr1092   Zr     0.062130000000     0.500000000000     0.937870000000     0          
Zr1093   Zr     0.937870000000     0.500000000000     0.062130000000     0          
Zr1094   Zr     0.937870000000     0.500000000000     0.937870000000     0          
Zr1095   Zr     0.062130000000     0.062130000000     0.500000000000     0          
Zr1096   Zr     0.937870000000     0.062130000000     0.500000000000     0          
Zr1097   Zr     0.062130000000     0.937870000000     0.500000000000     0          
Zr1098   Zr     0.937870000000     0.937870000000     0.500000000000     0          


