data_UYAXAV

_audit_creation_method RASPA-1.0
_audit_creation_date 2020-11-2
_audit_author_name 'Rocio Bueno-Perez'

_cell_length_a    35.013
_cell_length_b    35.013
_cell_length_c    35.013
_cell_angle_alpha 90
_cell_angle_beta  90
_cell_angle_gamma 90
_cell_volume      42922.8

_symmetry_cell_setting          triclinic
_symmetry_space_group_name_Hall 'P 1'
_symmetry_space_group_name_H-M  'P 1'
_symmetry_Int_Tables_number     1

_symmetry_equiv_pos_as_xyz 'x,y,z'

loop_
_atom_site_label
_atom_site_type_symbol
_atom_site_fract_x
_atom_site_fract_y
_atom_site_fract_z
_atom_site_charge
C1       C      0.167800000000     0.201720000000     0.736600000000     0          
H2       H      0.174700000000     0.223300000000     0.739700000000     0          
C3       C      0.148200000000     0.182700000000     0.707800000000     0          
H4       H      0.138100000000     0.196300000000     0.687400000000     0          
C5       C      0.158900000000     0.122910000000     0.740100000000     0          
H6       H      0.151600000000     0.092800000000     0.735600000000     0          
C7       C      0.178500000000     0.141900000000     0.768850000000     0          
H8       H      0.187000000000     0.118500000000     0.785700000000     0          
C9       C      0.332200000000     0.298280000000     0.236600000000     0          
H10      H      0.325300000000     0.276700000000     0.239700000000     0          
C11      C      0.351800000000     0.317300000000     0.207800000000     0          
H12      H      0.361900000000     0.303700000000     0.187400000000     0          
C13      C      0.341100000000     0.377090000000     0.240100000000     0          
H14      H      0.348400000000     0.407200000000     0.235600000000     0          
C15      C      0.321500000000     0.358100000000     0.268850000000     0          
H16      H      0.313000000000     0.381500000000     0.285700000000     0          
C17      C      0.832200000000     0.201720000000     0.263400000000     0          
H18      H      0.825300000000     0.223300000000     0.260300000000     0          
C19      C      0.851800000000     0.182700000000     0.292200000000     0          
H20      H      0.861900000000     0.196300000000     0.312600000000     0          
C21      C      0.841100000000     0.122910000000     0.259900000000     0          
H22      H      0.848400000000     0.092800000000     0.264400000000     0          
C23      C      0.821500000000     0.141900000000     0.231150000000     0          
H24      H      0.813000000000     0.118500000000     0.214300000000     0          
C25      C      0.667800000000     0.298280000000     0.763400000000     0          
H26      H      0.674700000000     0.276700000000     0.760300000000     0          
C27      C      0.648200000000     0.317300000000     0.792200000000     0          
H28      H      0.638100000000     0.303700000000     0.812600000000     0          
C29      C      0.658900000000     0.377090000000     0.759900000000     0          
H30      H      0.651600000000     0.407200000000     0.764400000000     0          
C31      C      0.678500000000     0.358100000000     0.731150000000     0          
H32      H      0.687000000000     0.381500000000     0.714300000000     0          
H33      H      0.739700000000     0.825300000000     0.776700000000     0          
C34      C      0.701720000000     0.236600000000     0.667800000000     0          
H35      H      0.723300000000     0.239700000000     0.674700000000     0          
C36      C      0.682700000000     0.207800000000     0.648200000000     0          
H37      H      0.696300000000     0.187400000000     0.638100000000     0          
C38      C      0.622910000000     0.240100000000     0.658900000000     0          
H39      H      0.592800000000     0.235600000000     0.651600000000     0          
C40      C      0.641900000000     0.268850000000     0.678500000000     0          
H41      H      0.618500000000     0.285700000000     0.687000000000     0          
C42      C      0.201720000000     0.736600000000     0.167800000000     0          
H43      H      0.223300000000     0.739700000000     0.174700000000     0          
C44      C      0.182700000000     0.707800000000     0.148200000000     0          
H45      H      0.196300000000     0.687400000000     0.138100000000     0          
C46      C      0.122910000000     0.740100000000     0.158900000000     0          
H47      H      0.092800000000     0.735600000000     0.151600000000     0          
C48      C      0.141900000000     0.768850000000     0.178500000000     0          
H49      H      0.118500000000     0.785700000000     0.187000000000     0          
C50      C      0.298280000000     0.236600000000     0.332200000000     0          
H51      H      0.276700000000     0.239700000000     0.325300000000     0          
C52      C      0.317300000000     0.207800000000     0.351800000000     0          
H53      H      0.303700000000     0.187400000000     0.361900000000     0          
C54      C      0.377090000000     0.240100000000     0.341100000000     0          
H55      H      0.407200000000     0.235600000000     0.348400000000     0          
C56      C      0.358100000000     0.268850000000     0.321500000000     0          
H57      H      0.381500000000     0.285700000000     0.313000000000     0          
C58      C      0.798280000000     0.736600000000     0.832200000000     0          
H59      H      0.776700000000     0.739700000000     0.825300000000     0          
C60      C      0.817300000000     0.707800000000     0.851800000000     0          
H61      H      0.803700000000     0.687400000000     0.861900000000     0          
C62      C      0.877090000000     0.740100000000     0.841100000000     0          
H63      H      0.907200000000     0.735600000000     0.848400000000     0          
C64      C      0.858100000000     0.768850000000     0.821500000000     0          
H65      H      0.881500000000     0.785700000000     0.813000000000     0          
C66      C      0.701720000000     0.763400000000     0.332200000000     0          
H67      H      0.723300000000     0.760300000000     0.325300000000     0          
C68      C      0.682700000000     0.792200000000     0.351800000000     0          
H69      H      0.696300000000     0.812600000000     0.361900000000     0          
C70      C      0.622910000000     0.759900000000     0.341100000000     0          
H71      H      0.592800000000     0.764400000000     0.348400000000     0          
C72      C      0.641900000000     0.731150000000     0.321500000000     0          
H73      H      0.618500000000     0.714300000000     0.313000000000     0          
C74      C      0.201720000000     0.263400000000     0.832200000000     0          
H75      H      0.223300000000     0.260300000000     0.825300000000     0          
C76      C      0.182700000000     0.292200000000     0.851800000000     0          
H77      H      0.196300000000     0.312600000000     0.861900000000     0          
C78      C      0.122910000000     0.259900000000     0.841100000000     0          
H79      H      0.092800000000     0.264400000000     0.848400000000     0          
C80      C      0.141900000000     0.231150000000     0.821500000000     0          
H81      H      0.118500000000     0.214300000000     0.813000000000     0          
C82      C      0.298280000000     0.763400000000     0.667800000000     0          
H83      H      0.276700000000     0.760300000000     0.674700000000     0          
C84      C      0.317300000000     0.792200000000     0.648200000000     0          
H85      H      0.303700000000     0.812600000000     0.638100000000     0          
C86      C      0.377090000000     0.759900000000     0.658900000000     0          
H87      H      0.407200000000     0.764400000000     0.651600000000     0          
C88      C      0.358100000000     0.731150000000     0.678500000000     0          
H89      H      0.381500000000     0.714300000000     0.687000000000     0          
C90      C      0.798280000000     0.263400000000     0.167800000000     0          
H91      H      0.776700000000     0.260300000000     0.174700000000     0          
C92      C      0.817300000000     0.292200000000     0.148200000000     0          
H93      H      0.803700000000     0.312600000000     0.138100000000     0          
C94      C      0.877090000000     0.259900000000     0.158900000000     0          
H95      H      0.907200000000     0.264400000000     0.151600000000     0          
C96      C      0.858100000000     0.231150000000     0.178500000000     0          
H97      H      0.881500000000     0.214300000000     0.187000000000     0          
C98      C      0.701720000000     0.667800000000     0.763400000000     0          
H99      H      0.723300000000     0.674700000000     0.760300000000     0          
C100     C      0.682700000000     0.648200000000     0.792200000000     0          
H101     H      0.696300000000     0.638100000000     0.812600000000     0          
C102     C      0.622910000000     0.658900000000     0.759900000000     0          
H103     H      0.592800000000     0.651600000000     0.764400000000     0          
C104     C      0.641900000000     0.678500000000     0.731150000000     0          
H105     H      0.618500000000     0.687000000000     0.714300000000     0          
H106     H      0.381500000000     0.313000000000     0.714300000000     0          
C107     C      0.798280000000     0.832200000000     0.263400000000     0          
H108     H      0.776700000000     0.825300000000     0.260300000000     0          
C109     C      0.817300000000     0.851800000000     0.292200000000     0          
H110     H      0.803700000000     0.861900000000     0.312600000000     0          
C111     C      0.877090000000     0.841100000000     0.259900000000     0          
H112     H      0.907200000000     0.848400000000     0.264400000000     0          
C113     C      0.858100000000     0.821500000000     0.231150000000     0          
H114     H      0.881500000000     0.813000000000     0.214300000000     0          
C115     C      0.201720000000     0.832200000000     0.736600000000     0          
H116     H      0.223300000000     0.825300000000     0.739700000000     0          
C117     C      0.182700000000     0.851800000000     0.707800000000     0          
H118     H      0.196300000000     0.861900000000     0.687400000000     0          
C119     C      0.122910000000     0.841100000000     0.740100000000     0          
H120     H      0.092800000000     0.848400000000     0.735600000000     0          
C121     C      0.141900000000     0.821500000000     0.768850000000     0          
H122     H      0.118500000000     0.813000000000     0.785700000000     0          
C123     C      0.298280000000     0.667800000000     0.236600000000     0          
H124     H      0.276700000000     0.674700000000     0.239700000000     0          
C125     C      0.317300000000     0.648200000000     0.207800000000     0          
H126     H      0.303700000000     0.638100000000     0.187400000000     0          
C127     C      0.377090000000     0.658900000000     0.240100000000     0          
H128     H      0.407200000000     0.651600000000     0.235600000000     0          
C129     C      0.358100000000     0.678500000000     0.268850000000     0          
H130     H      0.381500000000     0.687000000000     0.285700000000     0          
C131     C      0.851800000000     0.292200000000     0.817300000000     0          
H132     H      0.861900000000     0.312600000000     0.803700000000     0          
C133     C      0.236600000000     0.701720000000     0.332200000000     0          
H134     H      0.239700000000     0.723300000000     0.325300000000     0          
C135     C      0.207800000000     0.682700000000     0.351800000000     0          
H136     H      0.187400000000     0.696300000000     0.361900000000     0          
C137     C      0.240100000000     0.622910000000     0.341100000000     0          
H138     H      0.235600000000     0.592800000000     0.348400000000     0          
C139     C      0.268850000000     0.641900000000     0.321500000000     0          
H140     H      0.285700000000     0.618500000000     0.313000000000     0          
C141     C      0.236600000000     0.298280000000     0.667800000000     0          
H142     H      0.239700000000     0.276700000000     0.674700000000     0          
C143     C      0.207800000000     0.317300000000     0.648200000000     0          
H144     H      0.187400000000     0.303700000000     0.638100000000     0          
C145     C      0.240100000000     0.377090000000     0.658900000000     0          
H146     H      0.235600000000     0.407200000000     0.651600000000     0          
C147     C      0.268850000000     0.358100000000     0.678500000000     0          
H148     H      0.285700000000     0.381500000000     0.687000000000     0          
C149     C      0.736600000000     0.798280000000     0.167800000000     0          
H150     H      0.739700000000     0.776700000000     0.174700000000     0          
C151     C      0.707800000000     0.817300000000     0.148200000000     0          
H152     H      0.687400000000     0.803700000000     0.138100000000     0          
C153     C      0.740100000000     0.877090000000     0.158900000000     0          
H154     H      0.735600000000     0.907200000000     0.151600000000     0          
C155     C      0.768850000000     0.858100000000     0.178500000000     0          
H156     H      0.785700000000     0.881500000000     0.187000000000     0          
C157     C      0.763400000000     0.701720000000     0.667800000000     0          
H158     H      0.760300000000     0.723300000000     0.674700000000     0          
C159     C      0.792200000000     0.682700000000     0.648200000000     0          
H160     H      0.812600000000     0.696300000000     0.638100000000     0          
C161     C      0.759900000000     0.622910000000     0.658900000000     0          
H162     H      0.764400000000     0.592800000000     0.651600000000     0          
C163     C      0.731150000000     0.641900000000     0.678500000000     0          
H164     H      0.714300000000     0.618500000000     0.687000000000     0          
C165     C      0.263400000000     0.201720000000     0.167800000000     0          
H166     H      0.260300000000     0.223300000000     0.174700000000     0          
C167     C      0.292200000000     0.182700000000     0.148200000000     0          
H168     H      0.312600000000     0.196300000000     0.138100000000     0          
C169     C      0.259900000000     0.122910000000     0.158900000000     0          
H170     H      0.264400000000     0.092800000000     0.151600000000     0          
C171     C      0.231150000000     0.141900000000     0.178500000000     0          
H172     H      0.214300000000     0.118500000000     0.187000000000     0          
C173     C      0.763400000000     0.298280000000     0.332200000000     0          
H174     H      0.760300000000     0.276700000000     0.325300000000     0          
C175     C      0.792200000000     0.317300000000     0.351800000000     0          
H176     H      0.812600000000     0.303700000000     0.361900000000     0          
C177     C      0.759900000000     0.377090000000     0.341100000000     0          
H178     H      0.764400000000     0.407200000000     0.348400000000     0          
C179     C      0.731150000000     0.358100000000     0.321500000000     0          
H180     H      0.714300000000     0.381500000000     0.313000000000     0          
C181     C      0.263400000000     0.798280000000     0.832200000000     0          
H182     H      0.260300000000     0.776700000000     0.825300000000     0          
C183     C      0.292200000000     0.817300000000     0.851800000000     0          
H184     H      0.312600000000     0.803700000000     0.861900000000     0          
C185     C      0.259900000000     0.877090000000     0.841100000000     0          
H186     H      0.264400000000     0.907200000000     0.848400000000     0          
C187     C      0.231150000000     0.858100000000     0.821500000000     0          
H188     H      0.214300000000     0.881500000000     0.813000000000     0          
C189     C      0.332200000000     0.298280000000     0.763400000000     0          
H190     H      0.325300000000     0.276700000000     0.760300000000     0          
C191     C      0.351800000000     0.317300000000     0.792200000000     0          
H192     H      0.361900000000     0.303700000000     0.812600000000     0          
C193     C      0.341100000000     0.377090000000     0.759900000000     0          
H194     H      0.348400000000     0.407200000000     0.764400000000     0          
C195     C      0.321500000000     0.358100000000     0.731150000000     0          
H196     H      0.313000000000     0.381500000000     0.714300000000     0          
C197     C      0.167800000000     0.201720000000     0.263400000000     0          
H198     H      0.174700000000     0.223300000000     0.260300000000     0          
C199     C      0.148200000000     0.182700000000     0.292200000000     0          
H200     H      0.138100000000     0.196300000000     0.312600000000     0          
C201     C      0.158900000000     0.122910000000     0.259900000000     0          
H202     H      0.151600000000     0.092800000000     0.264400000000     0          
C203     C      0.178500000000     0.141900000000     0.231150000000     0          
H204     H      0.187000000000     0.118500000000     0.214300000000     0          
C205     C      0.667800000000     0.298280000000     0.236600000000     0          
H206     H      0.674700000000     0.276700000000     0.239700000000     0          
C207     C      0.648200000000     0.317300000000     0.207800000000     0          
H208     H      0.638100000000     0.303700000000     0.187400000000     0          
C209     C      0.658900000000     0.377090000000     0.240100000000     0          
H210     H      0.651600000000     0.407200000000     0.235600000000     0          
C211     C      0.678500000000     0.358100000000     0.268850000000     0          
H212     H      0.687000000000     0.381500000000     0.285700000000     0          
C213     C      0.832200000000     0.201720000000     0.736600000000     0          
H214     H      0.825300000000     0.223300000000     0.739700000000     0          
C215     C      0.851800000000     0.182700000000     0.707800000000     0          
H216     H      0.861900000000     0.196300000000     0.687400000000     0          
C217     C      0.841100000000     0.122910000000     0.740100000000     0          
H218     H      0.848400000000     0.092800000000     0.735600000000     0          
C219     C      0.821500000000     0.141900000000     0.768850000000     0          
H220     H      0.813000000000     0.118500000000     0.785700000000     0          
C221     C      0.736600000000     0.167800000000     0.798280000000     0          
H222     H      0.739700000000     0.174700000000     0.776700000000     0          
C223     C      0.707800000000     0.148200000000     0.817300000000     0          
H224     H      0.687400000000     0.138100000000     0.803700000000     0          
C225     C      0.740100000000     0.158900000000     0.877090000000     0          
H226     H      0.735600000000     0.151600000000     0.907200000000     0          
C227     C      0.768850000000     0.178500000000     0.858100000000     0          
H228     H      0.785700000000     0.187000000000     0.881500000000     0          
C229     C      0.298280000000     0.763400000000     0.332200000000     0          
H230     H      0.276700000000     0.760300000000     0.325300000000     0          
C231     C      0.317300000000     0.792200000000     0.351800000000     0          
H232     H      0.303700000000     0.812600000000     0.361900000000     0          
C233     C      0.377090000000     0.759900000000     0.341100000000     0          
H234     H      0.407200000000     0.764400000000     0.348400000000     0          
C235     C      0.358100000000     0.731150000000     0.321500000000     0          
H236     H      0.381500000000     0.714300000000     0.313000000000     0          
C237     C      0.798280000000     0.263400000000     0.832200000000     0          
H238     H      0.776700000000     0.260300000000     0.825300000000     0          
C239     C      0.817300000000     0.292200000000     0.851800000000     0          
H240     H      0.803700000000     0.312600000000     0.861900000000     0          
C241     C      0.877090000000     0.259900000000     0.841100000000     0          
H242     H      0.907200000000     0.264400000000     0.848400000000     0          
C243     C      0.858100000000     0.231150000000     0.821500000000     0          
H244     H      0.881500000000     0.214300000000     0.813000000000     0          
C245     C      0.701720000000     0.763400000000     0.667800000000     0          
H246     H      0.723300000000     0.760300000000     0.674700000000     0          
C247     C      0.682700000000     0.792200000000     0.648200000000     0          
H248     H      0.696300000000     0.812600000000     0.638100000000     0          
C249     C      0.622910000000     0.759900000000     0.658900000000     0          
H250     H      0.592800000000     0.764400000000     0.651600000000     0          
C251     C      0.641900000000     0.731150000000     0.678500000000     0          
H252     H      0.618500000000     0.714300000000     0.687000000000     0          
C253     C      0.201720000000     0.263400000000     0.167800000000     0          
H254     H      0.223300000000     0.260300000000     0.174700000000     0          
C255     C      0.182700000000     0.292200000000     0.148200000000     0          
H256     H      0.196300000000     0.312600000000     0.138100000000     0          
C257     C      0.122910000000     0.259900000000     0.158900000000     0          
H258     H      0.092800000000     0.264400000000     0.151600000000     0          
C259     C      0.141900000000     0.231150000000     0.178500000000     0          
H260     H      0.118500000000     0.214300000000     0.187000000000     0          
C261     C      0.298280000000     0.236600000000     0.667800000000     0          
H262     H      0.276700000000     0.239700000000     0.674700000000     0          
C263     C      0.317300000000     0.207800000000     0.648200000000     0          
H264     H      0.303700000000     0.187400000000     0.638100000000     0          
C265     C      0.377090000000     0.240100000000     0.658900000000     0          
H266     H      0.407200000000     0.235600000000     0.651600000000     0          
C267     C      0.358100000000     0.268850000000     0.678500000000     0          
H268     H      0.381500000000     0.285700000000     0.687000000000     0          
C269     C      0.798280000000     0.736600000000     0.167800000000     0          
H270     H      0.776700000000     0.739700000000     0.174700000000     0          
C271     C      0.817300000000     0.707800000000     0.148200000000     0          
H272     H      0.803700000000     0.687400000000     0.138100000000     0          
C273     C      0.877090000000     0.740100000000     0.158900000000     0          
H274     H      0.907200000000     0.735600000000     0.151600000000     0          
C275     C      0.858100000000     0.768850000000     0.178500000000     0          
H276     H      0.881500000000     0.785700000000     0.187000000000     0          
C277     C      0.701720000000     0.236600000000     0.332200000000     0          
H278     H      0.723300000000     0.239700000000     0.325300000000     0          
C279     C      0.682700000000     0.207800000000     0.351800000000     0          
H280     H      0.696300000000     0.187400000000     0.361900000000     0          
C281     C      0.622910000000     0.240100000000     0.341100000000     0          
H282     H      0.592800000000     0.235600000000     0.348400000000     0          
C283     C      0.641900000000     0.268850000000     0.321500000000     0          
H284     H      0.618500000000     0.285700000000     0.313000000000     0          
C285     C      0.201720000000     0.736600000000     0.832200000000     0          
H286     H      0.223300000000     0.739700000000     0.825300000000     0          
C287     C      0.182700000000     0.707800000000     0.851800000000     0          
H288     H      0.196300000000     0.687400000000     0.861900000000     0          
C289     C      0.122910000000     0.740100000000     0.841100000000     0          
H290     H      0.092800000000     0.735600000000     0.848400000000     0          
C291     C      0.141900000000     0.768850000000     0.821500000000     0          
H292     H      0.118500000000     0.785700000000     0.813000000000     0          
C293     C      0.798280000000     0.832200000000     0.736600000000     0          
H294     H      0.776700000000     0.825300000000     0.739700000000     0          
C295     C      0.817300000000     0.851800000000     0.707800000000     0          
H296     H      0.803700000000     0.861900000000     0.687400000000     0          
C297     C      0.877090000000     0.841100000000     0.740100000000     0          
H298     H      0.907200000000     0.848400000000     0.735600000000     0          
C299     C      0.858100000000     0.821500000000     0.768850000000     0          
H300     H      0.881500000000     0.813000000000     0.785700000000     0          
C301     C      0.701720000000     0.667800000000     0.236600000000     0          
H302     H      0.723300000000     0.674700000000     0.239700000000     0          
C303     C      0.682700000000     0.648200000000     0.207800000000     0          
H304     H      0.696300000000     0.638100000000     0.187400000000     0          
C305     C      0.622910000000     0.658900000000     0.240100000000     0          
H306     H      0.592800000000     0.651600000000     0.235600000000     0          
C307     C      0.641900000000     0.678500000000     0.268850000000     0          
H308     H      0.618500000000     0.687000000000     0.285700000000     0          
C309     C      0.298280000000     0.667800000000     0.763400000000     0          
H310     H      0.276700000000     0.674700000000     0.760300000000     0          
C311     C      0.317300000000     0.648200000000     0.792200000000     0          
H312     H      0.303700000000     0.638100000000     0.812600000000     0          
C313     C      0.377090000000     0.658900000000     0.759900000000     0          
H314     H      0.407200000000     0.651600000000     0.764400000000     0          
C315     C      0.358100000000     0.678500000000     0.731150000000     0          
H316     H      0.381500000000     0.687000000000     0.714300000000     0          
H317     H      0.803700000000     0.138100000000     0.312600000000     0          
C318     C      0.201720000000     0.832200000000     0.263400000000     0          
H319     H      0.223300000000     0.825300000000     0.260300000000     0          
C320     C      0.182700000000     0.851800000000     0.292200000000     0          
H321     H      0.196300000000     0.861900000000     0.312600000000     0          
C322     C      0.122910000000     0.841100000000     0.259900000000     0          
H323     H      0.092800000000     0.848400000000     0.264400000000     0          
C324     C      0.141900000000     0.821500000000     0.231150000000     0          
H325     H      0.118500000000     0.813000000000     0.214300000000     0          
C326     C      0.763400000000     0.298280000000     0.667800000000     0          
H327     H      0.760300000000     0.276700000000     0.674700000000     0          
C328     C      0.792200000000     0.317300000000     0.648200000000     0          
H329     H      0.812600000000     0.303700000000     0.638100000000     0          
C330     C      0.759900000000     0.377090000000     0.658900000000     0          
H331     H      0.764400000000     0.407200000000     0.651600000000     0          
C332     C      0.731150000000     0.358100000000     0.678500000000     0          
H333     H      0.714300000000     0.381500000000     0.687000000000     0          
C334     C      0.263400000000     0.798280000000     0.167800000000     0          
H335     H      0.260300000000     0.776700000000     0.174700000000     0          
C336     C      0.292200000000     0.817300000000     0.148200000000     0          
H337     H      0.312600000000     0.803700000000     0.138100000000     0          
C338     C      0.259900000000     0.877090000000     0.158900000000     0          
H339     H      0.264400000000     0.907200000000     0.151600000000     0          
C340     C      0.231150000000     0.858100000000     0.178500000000     0          
H341     H      0.214300000000     0.881500000000     0.187000000000     0          
C342     C      0.763400000000     0.701720000000     0.332200000000     0          
H343     H      0.760300000000     0.723300000000     0.325300000000     0          
C344     C      0.792200000000     0.682700000000     0.351800000000     0          
H345     H      0.812600000000     0.696300000000     0.361900000000     0          
C346     C      0.759900000000     0.622910000000     0.341100000000     0          
H347     H      0.764400000000     0.592800000000     0.348400000000     0          
C348     C      0.731150000000     0.641900000000     0.321500000000     0          
H349     H      0.714300000000     0.618500000000     0.313000000000     0          
C350     C      0.263400000000     0.201720000000     0.832200000000     0          
H351     H      0.260300000000     0.223300000000     0.825300000000     0          
C352     C      0.292200000000     0.182700000000     0.851800000000     0          
H353     H      0.312600000000     0.196300000000     0.861900000000     0          
C354     C      0.259900000000     0.122910000000     0.841100000000     0          
H355     H      0.264400000000     0.092800000000     0.848400000000     0          
C356     C      0.231150000000     0.141900000000     0.821500000000     0          
H357     H      0.214300000000     0.118500000000     0.813000000000     0          
C358     C      0.236600000000     0.298280000000     0.332200000000     0          
H359     H      0.239700000000     0.276700000000     0.325300000000     0          
C360     C      0.207800000000     0.317300000000     0.351800000000     0          
H361     H      0.187400000000     0.303700000000     0.361900000000     0          
C362     C      0.240100000000     0.377090000000     0.341100000000     0          
H363     H      0.235600000000     0.407200000000     0.348400000000     0          
C364     C      0.268850000000     0.358100000000     0.321500000000     0          
H365     H      0.285700000000     0.381500000000     0.313000000000     0          
C366     C      0.736600000000     0.798280000000     0.832200000000     0          
H367     H      0.739700000000     0.776700000000     0.825300000000     0          
C368     C      0.707800000000     0.817300000000     0.851800000000     0          
H369     H      0.687400000000     0.803700000000     0.861900000000     0          
C370     C      0.740100000000     0.877090000000     0.841100000000     0          
H371     H      0.735600000000     0.907200000000     0.848400000000     0          
C372     C      0.768850000000     0.858100000000     0.821500000000     0          
H373     H      0.785700000000     0.881500000000     0.813000000000     0          
C374     C      0.236600000000     0.701720000000     0.667800000000     0          
H375     H      0.239700000000     0.723300000000     0.674700000000     0          
C376     C      0.207800000000     0.682700000000     0.648200000000     0          
H377     H      0.187400000000     0.696300000000     0.638100000000     0          
C378     C      0.240100000000     0.622910000000     0.658900000000     0          
H379     H      0.235600000000     0.592800000000     0.651600000000     0          
C380     C      0.268850000000     0.641900000000     0.678500000000     0          
H381     H      0.285700000000     0.618500000000     0.687000000000     0          
C382     C      0.736600000000     0.201720000000     0.167800000000     0          
H383     H      0.739700000000     0.223300000000     0.174700000000     0          
C384     C      0.707800000000     0.182700000000     0.148200000000     0          
H385     H      0.687400000000     0.196300000000     0.138100000000     0          
C386     C      0.740100000000     0.122910000000     0.158900000000     0          
H387     H      0.735600000000     0.092800000000     0.151600000000     0          
C388     C      0.768850000000     0.141900000000     0.178500000000     0          
H389     H      0.785700000000     0.118500000000     0.187000000000     0          
Zr390    Zr     0.500000000000     0.500000000000     0.070350000000     0          
Zr391    Zr     0.000000000000     0.000000000000     0.570350000000     0          
Zr392    Zr     0.500000000000     0.500000000000     0.929650000000     0          
Zr393    Zr     0.000000000000     0.000000000000     0.429650000000     0          
Zr394    Zr     0.070350000000     0.500000000000     0.500000000000     0          
Zr395    Zr     0.570350000000     0.000000000000     0.000000000000     0          
Zr396    Zr     0.929650000000     0.500000000000     0.500000000000     0          
Zr397    Zr     0.429650000000     0.000000000000     0.000000000000     0          
Zr398    Zr     0.500000000000     0.070350000000     0.500000000000     0          
Zr399    Zr     0.000000000000     0.570350000000     0.000000000000     0          
Zr400    Zr     0.500000000000     0.929650000000     0.500000000000     0          
Zr401    Zr     0.000000000000     0.429650000000     0.000000000000     0          
Zr402    Zr     0.449500000000     0.449500000000     0.000000000000     0          
Zr403    Zr     0.949500000000     0.949500000000     0.500000000000     0          
Zr404    Zr     0.550500000000     0.550500000000     0.000000000000     0          
Zr405    Zr     0.050500000000     0.050500000000     0.500000000000     0          
Zr406    Zr     0.550500000000     0.449500000000     0.000000000000     0          
Zr407    Zr     0.050500000000     0.949500000000     0.500000000000     0          
Zr408    Zr     0.449500000000     0.550500000000     0.000000000000     0          
Zr409    Zr     0.949500000000     0.050500000000     0.500000000000     0          
Zr410    Zr     0.000000000000     0.449500000000     0.449500000000     0          
Zr411    Zr     0.500000000000     0.949500000000     0.949500000000     0          
Zr412    Zr     0.000000000000     0.550500000000     0.550500000000     0          
Zr413    Zr     0.500000000000     0.050500000000     0.050500000000     0          
Zr414    Zr     0.000000000000     0.550500000000     0.449500000000     0          
Zr415    Zr     0.500000000000     0.050500000000     0.949500000000     0          
Zr416    Zr     0.000000000000     0.449500000000     0.550500000000     0          
Zr417    Zr     0.500000000000     0.949500000000     0.050500000000     0          
Zr418    Zr     0.449500000000     0.000000000000     0.449500000000     0          
Zr419    Zr     0.949500000000     0.500000000000     0.949500000000     0          
Zr420    Zr     0.550500000000     0.000000000000     0.550500000000     0          
Zr421    Zr     0.050500000000     0.500000000000     0.050500000000     0          
Zr422    Zr     0.449500000000     0.000000000000     0.550500000000     0          
Zr423    Zr     0.949500000000     0.500000000000     0.050500000000     0          
Zr424    Zr     0.550500000000     0.000000000000     0.449500000000     0          
Zr425    Zr     0.050500000000     0.500000000000     0.949500000000     0          
O426     O      0.537650000000     0.537650000000     0.102860000000     0          
O427     O      0.570440000000     0.570440000000     0.057460000000     0          
C428     C      0.561000000000     0.561000000000     0.092400000000     0          
C429     C      0.583500000000     0.583500000000     0.122400000000     0          
C430     C      0.610800000000     0.610800000000     0.113000000000     0          
H431     H      0.615700000000     0.615700000000     0.087300000000     0          
C432     C      0.631600000000     0.631600000000     0.140900000000     0          
H433     H      0.649800000000     0.649800000000     0.134000000000     0          
C434     C      0.623600000000     0.623600000000     0.178900000000     0          
C435     C      0.594600000000     0.594600000000     0.188300000000     0          
H436     H      0.589300000000     0.589300000000     0.213800000000     0          
C437     C      0.575300000000     0.575300000000     0.160200000000     0          
H438     H      0.557100000000     0.557100000000     0.166400000000     0          
C439     C      0.643700000000     0.643700000000     0.209600000000     0          
C440     C      0.682650000000     0.682650000000     0.267100000000     0          
O441     O      0.037650000000     0.037650000000     0.602860000000     0          
O442     O      0.070440000000     0.070440000000     0.557460000000     0          
C443     C      0.061000000000     0.061000000000     0.592400000000     0          
C444     C      0.083500000000     0.083500000000     0.622400000000     0          
C445     C      0.110800000000     0.110800000000     0.613000000000     0          
H446     H      0.115700000000     0.115700000000     0.587300000000     0          
C447     C      0.131600000000     0.131600000000     0.640900000000     0          
H448     H      0.149800000000     0.149800000000     0.634000000000     0          
C449     C      0.123600000000     0.123600000000     0.678900000000     0          
C450     C      0.094600000000     0.094600000000     0.688300000000     0          
H451     H      0.089300000000     0.089300000000     0.713800000000     0          
C452     C      0.075300000000     0.075300000000     0.660200000000     0          
H453     H      0.057100000000     0.057100000000     0.666400000000     0          
C454     C      0.143700000000     0.143700000000     0.709600000000     0          
C455     C      0.182650000000     0.182650000000     0.767100000000     0          
O456     O      0.462350000000     0.462350000000     0.102860000000     0          
O457     O      0.429560000000     0.429560000000     0.057460000000     0          
C458     C      0.439000000000     0.439000000000     0.092400000000     0          
C459     C      0.416500000000     0.416500000000     0.122400000000     0          
C460     C      0.389200000000     0.389200000000     0.113000000000     0          
H461     H      0.384300000000     0.384300000000     0.087300000000     0          
C462     C      0.368400000000     0.368400000000     0.140900000000     0          
H463     H      0.350200000000     0.350200000000     0.134000000000     0          
C464     C      0.376400000000     0.376400000000     0.178900000000     0          
C465     C      0.405400000000     0.405400000000     0.188300000000     0          
H466     H      0.410700000000     0.410700000000     0.213800000000     0          
C467     C      0.424700000000     0.424700000000     0.160200000000     0          
H468     H      0.442900000000     0.442900000000     0.166400000000     0          
C469     C      0.356300000000     0.356300000000     0.209600000000     0          
C470     C      0.317350000000     0.317350000000     0.267100000000     0          
O471     O      0.962350000000     0.962350000000     0.602860000000     0          
O472     O      0.929560000000     0.929560000000     0.557460000000     0          
C473     C      0.939000000000     0.939000000000     0.592400000000     0          
C474     C      0.916500000000     0.916500000000     0.622400000000     0          
C475     C      0.889200000000     0.889200000000     0.613000000000     0          
H476     H      0.884300000000     0.884300000000     0.587300000000     0          
C477     C      0.868400000000     0.868400000000     0.640900000000     0          
H478     H      0.850200000000     0.850200000000     0.634000000000     0          
C479     C      0.876400000000     0.876400000000     0.678900000000     0          
C480     C      0.905400000000     0.905400000000     0.688300000000     0          
H481     H      0.910700000000     0.910700000000     0.713800000000     0          
C482     C      0.924700000000     0.924700000000     0.660200000000     0          
H483     H      0.942900000000     0.942900000000     0.666400000000     0          
C484     C      0.856300000000     0.856300000000     0.709600000000     0          
C485     C      0.817350000000     0.817350000000     0.767100000000     0          
O486     O      0.462350000000     0.537650000000     0.897140000000     0          
O487     O      0.429560000000     0.570440000000     0.942540000000     0          
C488     C      0.439000000000     0.561000000000     0.907600000000     0          
C489     C      0.416500000000     0.583500000000     0.877600000000     0          
C490     C      0.389200000000     0.610800000000     0.887000000000     0          
H491     H      0.384300000000     0.615700000000     0.912700000000     0          
C492     C      0.368400000000     0.631600000000     0.859100000000     0          
H493     H      0.350200000000     0.649800000000     0.866000000000     0          
C494     C      0.376400000000     0.623600000000     0.821100000000     0          
C495     C      0.405400000000     0.594600000000     0.811700000000     0          
H496     H      0.410700000000     0.589300000000     0.786200000000     0          
C497     C      0.424700000000     0.575300000000     0.839800000000     0          
H498     H      0.442900000000     0.557100000000     0.833600000000     0          
C499     C      0.356300000000     0.643700000000     0.790400000000     0          
C500     C      0.317350000000     0.682650000000     0.732900000000     0          
O501     O      0.962350000000     0.037650000000     0.397140000000     0          
O502     O      0.929560000000     0.070440000000     0.442540000000     0          
C503     C      0.939000000000     0.061000000000     0.407600000000     0          
C504     C      0.916500000000     0.083500000000     0.377600000000     0          
C505     C      0.889200000000     0.110800000000     0.387000000000     0          
H506     H      0.884300000000     0.115700000000     0.412700000000     0          
C507     C      0.868400000000     0.131600000000     0.359100000000     0          
H508     H      0.850200000000     0.149800000000     0.366000000000     0          
C509     C      0.876400000000     0.123600000000     0.321100000000     0          
C510     C      0.905400000000     0.094600000000     0.311700000000     0          
H511     H      0.910700000000     0.089300000000     0.286200000000     0          
C512     C      0.924700000000     0.075300000000     0.339800000000     0          
H513     H      0.942900000000     0.057100000000     0.333600000000     0          
C514     C      0.856300000000     0.143700000000     0.290400000000     0          
C515     C      0.817350000000     0.182650000000     0.232900000000     0          
O516     O      0.537650000000     0.462350000000     0.897140000000     0          
O517     O      0.570440000000     0.429560000000     0.942540000000     0          
C518     C      0.561000000000     0.439000000000     0.907600000000     0          
C519     C      0.583500000000     0.416500000000     0.877600000000     0          
C520     C      0.610800000000     0.389200000000     0.887000000000     0          
H521     H      0.615700000000     0.384300000000     0.912700000000     0          
C522     C      0.631600000000     0.368400000000     0.859100000000     0          
H523     H      0.649800000000     0.350200000000     0.866000000000     0          
C524     C      0.623600000000     0.376400000000     0.821100000000     0          
C525     C      0.594600000000     0.405400000000     0.811700000000     0          
H526     H      0.589300000000     0.410700000000     0.786200000000     0          
C527     C      0.575300000000     0.424700000000     0.839800000000     0          
H528     H      0.557100000000     0.442900000000     0.833600000000     0          
C529     C      0.643700000000     0.356300000000     0.790400000000     0          
C530     C      0.682650000000     0.317350000000     0.732900000000     0          
O531     O      0.037650000000     0.962350000000     0.397140000000     0          
O532     O      0.070440000000     0.929560000000     0.442540000000     0          
C533     C      0.061000000000     0.939000000000     0.407600000000     0          
C534     C      0.083500000000     0.916500000000     0.377600000000     0          
C535     C      0.110800000000     0.889200000000     0.387000000000     0          
H536     H      0.115700000000     0.884300000000     0.412700000000     0          
C537     C      0.131600000000     0.868400000000     0.359100000000     0          
H538     H      0.149800000000     0.850200000000     0.366000000000     0          
C539     C      0.123600000000     0.876400000000     0.321100000000     0          
C540     C      0.094600000000     0.905400000000     0.311700000000     0          
H541     H      0.089300000000     0.910700000000     0.286200000000     0          
C542     C      0.075300000000     0.924700000000     0.339800000000     0          
H543     H      0.057100000000     0.942900000000     0.333600000000     0          
C544     C      0.143700000000     0.856300000000     0.290400000000     0          
C545     C      0.182650000000     0.817350000000     0.232900000000     0          
O546     O      0.102860000000     0.537650000000     0.537650000000     0          
O547     O      0.057460000000     0.570440000000     0.570440000000     0          
C548     C      0.092400000000     0.561000000000     0.561000000000     0          
C549     C      0.122400000000     0.583500000000     0.583500000000     0          
C550     C      0.113000000000     0.610800000000     0.610800000000     0          
H551     H      0.087300000000     0.615700000000     0.615700000000     0          
C552     C      0.140900000000     0.631600000000     0.631600000000     0          
H553     H      0.134000000000     0.649800000000     0.649800000000     0          
C554     C      0.178900000000     0.623600000000     0.623600000000     0          
C555     C      0.188300000000     0.594600000000     0.594600000000     0          
H556     H      0.213800000000     0.589300000000     0.589300000000     0          
C557     C      0.160200000000     0.575300000000     0.575300000000     0          
H558     H      0.166400000000     0.557100000000     0.557100000000     0          
C559     C      0.209600000000     0.643700000000     0.643700000000     0          
C560     C      0.267100000000     0.682650000000     0.682650000000     0          
O561     O      0.602860000000     0.037650000000     0.037650000000     0          
O562     O      0.557460000000     0.070440000000     0.070440000000     0          
C563     C      0.592400000000     0.061000000000     0.061000000000     0          
C564     C      0.622400000000     0.083500000000     0.083500000000     0          
C565     C      0.613000000000     0.110800000000     0.110800000000     0          
H566     H      0.587300000000     0.115700000000     0.115700000000     0          
C567     C      0.640900000000     0.131600000000     0.131600000000     0          
H568     H      0.634000000000     0.149800000000     0.149800000000     0          
C569     C      0.678900000000     0.123600000000     0.123600000000     0          
C570     C      0.688300000000     0.094600000000     0.094600000000     0          
H571     H      0.713800000000     0.089300000000     0.089300000000     0          
C572     C      0.660200000000     0.075300000000     0.075300000000     0          
H573     H      0.666400000000     0.057100000000     0.057100000000     0          
C574     C      0.709600000000     0.143700000000     0.143700000000     0          
C575     C      0.767100000000     0.182650000000     0.182650000000     0          
O576     O      0.102860000000     0.462350000000     0.462350000000     0          
O577     O      0.057460000000     0.429560000000     0.429560000000     0          
C578     C      0.092400000000     0.439000000000     0.439000000000     0          
C579     C      0.122400000000     0.416500000000     0.416500000000     0          
C580     C      0.113000000000     0.389200000000     0.389200000000     0          
H581     H      0.087300000000     0.384300000000     0.384300000000     0          
C582     C      0.140900000000     0.368400000000     0.368400000000     0          
H583     H      0.134000000000     0.350200000000     0.350200000000     0          
C584     C      0.178900000000     0.376400000000     0.376400000000     0          
C585     C      0.188300000000     0.405400000000     0.405400000000     0          
H586     H      0.213800000000     0.410700000000     0.410700000000     0          
C587     C      0.160200000000     0.424700000000     0.424700000000     0          
H588     H      0.166400000000     0.442900000000     0.442900000000     0          
C589     C      0.209600000000     0.356300000000     0.356300000000     0          
C590     C      0.267100000000     0.317350000000     0.317350000000     0          
O591     O      0.602860000000     0.962350000000     0.962350000000     0          
O592     O      0.557460000000     0.929560000000     0.929560000000     0          
C593     C      0.592400000000     0.939000000000     0.939000000000     0          
C594     C      0.622400000000     0.916500000000     0.916500000000     0          
C595     C      0.613000000000     0.889200000000     0.889200000000     0          
H596     H      0.587300000000     0.884300000000     0.884300000000     0          
C597     C      0.640900000000     0.868400000000     0.868400000000     0          
H598     H      0.634000000000     0.850200000000     0.850200000000     0          
C599     C      0.678900000000     0.876400000000     0.876400000000     0          
C600     C      0.688300000000     0.905400000000     0.905400000000     0          
H601     H      0.713800000000     0.910700000000     0.910700000000     0          
C602     C      0.660200000000     0.924700000000     0.924700000000     0          
H603     H      0.666400000000     0.942900000000     0.942900000000     0          
C604     C      0.709600000000     0.856300000000     0.856300000000     0          
C605     C      0.767100000000     0.817350000000     0.817350000000     0          
O606     O      0.897140000000     0.462350000000     0.537650000000     0          
O607     O      0.942540000000     0.429560000000     0.570440000000     0          
C608     C      0.907600000000     0.439000000000     0.561000000000     0          
C609     C      0.877600000000     0.416500000000     0.583500000000     0          
C610     C      0.887000000000     0.389200000000     0.610800000000     0          
H611     H      0.912700000000     0.384300000000     0.615700000000     0          
C612     C      0.859100000000     0.368400000000     0.631600000000     0          
H613     H      0.866000000000     0.350200000000     0.649800000000     0          
C614     C      0.821100000000     0.376400000000     0.623600000000     0          
C615     C      0.811700000000     0.405400000000     0.594600000000     0          
H616     H      0.786200000000     0.410700000000     0.589300000000     0          
C617     C      0.839800000000     0.424700000000     0.575300000000     0          
H618     H      0.833600000000     0.442900000000     0.557100000000     0          
C619     C      0.790400000000     0.356300000000     0.643700000000     0          
C620     C      0.732900000000     0.317350000000     0.682650000000     0          
O621     O      0.397140000000     0.962350000000     0.037650000000     0          
O622     O      0.442540000000     0.929560000000     0.070440000000     0          
C623     C      0.407600000000     0.939000000000     0.061000000000     0          
C624     C      0.377600000000     0.916500000000     0.083500000000     0          
C625     C      0.387000000000     0.889200000000     0.110800000000     0          
H626     H      0.412700000000     0.884300000000     0.115700000000     0          
C627     C      0.359100000000     0.868400000000     0.131600000000     0          
H628     H      0.366000000000     0.850200000000     0.149800000000     0          
C629     C      0.321100000000     0.876400000000     0.123600000000     0          
C630     C      0.311700000000     0.905400000000     0.094600000000     0          
H631     H      0.286200000000     0.910700000000     0.089300000000     0          
C632     C      0.339800000000     0.924700000000     0.075300000000     0          
H633     H      0.333600000000     0.942900000000     0.057100000000     0          
C634     C      0.290400000000     0.856300000000     0.143700000000     0          
C635     C      0.232900000000     0.817350000000     0.182650000000     0          
O636     O      0.897140000000     0.537650000000     0.462350000000     0          
O637     O      0.942540000000     0.570440000000     0.429560000000     0          
C638     C      0.907600000000     0.561000000000     0.439000000000     0          
C639     C      0.877600000000     0.583500000000     0.416500000000     0          
C640     C      0.887000000000     0.610800000000     0.389200000000     0          
H641     H      0.912700000000     0.615700000000     0.384300000000     0          
C642     C      0.859100000000     0.631600000000     0.368400000000     0          
H643     H      0.866000000000     0.649800000000     0.350200000000     0          
C644     C      0.821100000000     0.623600000000     0.376400000000     0          
C645     C      0.811700000000     0.594600000000     0.405400000000     0          
H646     H      0.786200000000     0.589300000000     0.410700000000     0          
C647     C      0.839800000000     0.575300000000     0.424700000000     0          
H648     H      0.833600000000     0.557100000000     0.442900000000     0          
C649     C      0.790400000000     0.643700000000     0.356300000000     0          
C650     C      0.732900000000     0.682650000000     0.317350000000     0          
O651     O      0.397140000000     0.037650000000     0.962350000000     0          
O652     O      0.442540000000     0.070440000000     0.929560000000     0          
C653     C      0.407600000000     0.061000000000     0.939000000000     0          
C654     C      0.377600000000     0.083500000000     0.916500000000     0          
C655     C      0.387000000000     0.110800000000     0.889200000000     0          
H656     H      0.412700000000     0.115700000000     0.884300000000     0          
C657     C      0.359100000000     0.131600000000     0.868400000000     0          
H658     H      0.366000000000     0.149800000000     0.850200000000     0          
C659     C      0.321100000000     0.123600000000     0.876400000000     0          
C660     C      0.311700000000     0.094600000000     0.905400000000     0          
H661     H      0.286200000000     0.089300000000     0.910700000000     0          
C662     C      0.339800000000     0.075300000000     0.924700000000     0          
H663     H      0.333600000000     0.057100000000     0.942900000000     0          
C664     C      0.290400000000     0.143700000000     0.856300000000     0          
C665     C      0.232900000000     0.182650000000     0.817350000000     0          
O666     O      0.537650000000     0.102860000000     0.537650000000     0          
O667     O      0.570440000000     0.057460000000     0.570440000000     0          
C668     C      0.561000000000     0.092400000000     0.561000000000     0          
C669     C      0.583500000000     0.122400000000     0.583500000000     0          
C670     C      0.610800000000     0.113000000000     0.610800000000     0          
H671     H      0.615700000000     0.087300000000     0.615700000000     0          
C672     C      0.631600000000     0.140900000000     0.631600000000     0          
H673     H      0.649800000000     0.134000000000     0.649800000000     0          
C674     C      0.623600000000     0.178900000000     0.623600000000     0          
C675     C      0.594600000000     0.188300000000     0.594600000000     0          
H676     H      0.589300000000     0.213800000000     0.589300000000     0          
C677     C      0.575300000000     0.160200000000     0.575300000000     0          
H678     H      0.557100000000     0.166400000000     0.557100000000     0          
C679     C      0.643700000000     0.209600000000     0.643700000000     0          
C680     C      0.682650000000     0.267100000000     0.682650000000     0          
O681     O      0.037650000000     0.602860000000     0.037650000000     0          
O682     O      0.070440000000     0.557460000000     0.070440000000     0          
C683     C      0.061000000000     0.592400000000     0.061000000000     0          
C684     C      0.083500000000     0.622400000000     0.083500000000     0          
C685     C      0.110800000000     0.613000000000     0.110800000000     0          
H686     H      0.115700000000     0.587300000000     0.115700000000     0          
C687     C      0.131600000000     0.640900000000     0.131600000000     0          
H688     H      0.149800000000     0.634000000000     0.149800000000     0          
C689     C      0.123600000000     0.678900000000     0.123600000000     0          
C690     C      0.094600000000     0.688300000000     0.094600000000     0          
H691     H      0.089300000000     0.713800000000     0.089300000000     0          
C692     C      0.075300000000     0.660200000000     0.075300000000     0          
H693     H      0.057100000000     0.666400000000     0.057100000000     0          
C694     C      0.143700000000     0.709600000000     0.143700000000     0          
C695     C      0.182650000000     0.767100000000     0.182650000000     0          
O696     O      0.462350000000     0.102860000000     0.462350000000     0          
O697     O      0.429560000000     0.057460000000     0.429560000000     0          
C698     C      0.439000000000     0.092400000000     0.439000000000     0          
C699     C      0.416500000000     0.122400000000     0.416500000000     0          
C700     C      0.389200000000     0.113000000000     0.389200000000     0          
H701     H      0.384300000000     0.087300000000     0.384300000000     0          
C702     C      0.368400000000     0.140900000000     0.368400000000     0          
H703     H      0.350200000000     0.134000000000     0.350200000000     0          
C704     C      0.376400000000     0.178900000000     0.376400000000     0          
C705     C      0.405400000000     0.188300000000     0.405400000000     0          
H706     H      0.410700000000     0.213800000000     0.410700000000     0          
C707     C      0.424700000000     0.160200000000     0.424700000000     0          
H708     H      0.442900000000     0.166400000000     0.442900000000     0          
C709     C      0.356300000000     0.209600000000     0.356300000000     0          
C710     C      0.317350000000     0.267100000000     0.317350000000     0          
O711     O      0.962350000000     0.602860000000     0.962350000000     0          
O712     O      0.929560000000     0.557460000000     0.929560000000     0          
C713     C      0.939000000000     0.592400000000     0.939000000000     0          
C714     C      0.916500000000     0.622400000000     0.916500000000     0          
C715     C      0.889200000000     0.613000000000     0.889200000000     0          
H716     H      0.884300000000     0.587300000000     0.884300000000     0          
C717     C      0.868400000000     0.640900000000     0.868400000000     0          
H718     H      0.850200000000     0.634000000000     0.850200000000     0          
C719     C      0.876400000000     0.678900000000     0.876400000000     0          
C720     C      0.905400000000     0.688300000000     0.905400000000     0          
H721     H      0.910700000000     0.713800000000     0.910700000000     0          
C722     C      0.924700000000     0.660200000000     0.924700000000     0          
H723     H      0.942900000000     0.666400000000     0.942900000000     0          
C724     C      0.856300000000     0.709600000000     0.856300000000     0          
C725     C      0.817350000000     0.767100000000     0.817350000000     0          
O726     O      0.537650000000     0.897140000000     0.462350000000     0          
O727     O      0.570440000000     0.942540000000     0.429560000000     0          
C728     C      0.561000000000     0.907600000000     0.439000000000     0          
C729     C      0.583500000000     0.877600000000     0.416500000000     0          
C730     C      0.610800000000     0.887000000000     0.389200000000     0          
H731     H      0.615700000000     0.912700000000     0.384300000000     0          
C732     C      0.631600000000     0.859100000000     0.368400000000     0          
H733     H      0.649800000000     0.866000000000     0.350200000000     0          
C734     C      0.623600000000     0.821100000000     0.376400000000     0          
C735     C      0.594600000000     0.811700000000     0.405400000000     0          
H736     H      0.589300000000     0.786200000000     0.410700000000     0          
C737     C      0.575300000000     0.839800000000     0.424700000000     0          
H738     H      0.557100000000     0.833600000000     0.442900000000     0          
C739     C      0.643700000000     0.790400000000     0.356300000000     0          
C740     C      0.682650000000     0.732900000000     0.317350000000     0          
O741     O      0.037650000000     0.397140000000     0.962350000000     0          
O742     O      0.070440000000     0.442540000000     0.929560000000     0          
C743     C      0.061000000000     0.407600000000     0.939000000000     0          
C744     C      0.083500000000     0.377600000000     0.916500000000     0          
C745     C      0.110800000000     0.387000000000     0.889200000000     0          
H746     H      0.115700000000     0.412700000000     0.884300000000     0          
C747     C      0.131600000000     0.359100000000     0.868400000000     0          
H748     H      0.149800000000     0.366000000000     0.850200000000     0          
C749     C      0.123600000000     0.321100000000     0.876400000000     0          
C750     C      0.094600000000     0.311700000000     0.905400000000     0          
H751     H      0.089300000000     0.286200000000     0.910700000000     0          
C752     C      0.075300000000     0.339800000000     0.924700000000     0          
H753     H      0.057100000000     0.333600000000     0.942900000000     0          
C754     C      0.143700000000     0.290400000000     0.856300000000     0          
C755     C      0.182650000000     0.232900000000     0.817350000000     0          
O756     O      0.462350000000     0.897140000000     0.537650000000     0          
O757     O      0.429560000000     0.942540000000     0.570440000000     0          
C758     C      0.439000000000     0.907600000000     0.561000000000     0          
C759     C      0.416500000000     0.877600000000     0.583500000000     0          
C760     C      0.389200000000     0.887000000000     0.610800000000     0          
H761     H      0.384300000000     0.912700000000     0.615700000000     0          
C762     C      0.368400000000     0.859100000000     0.631600000000     0          
H763     H      0.350200000000     0.866000000000     0.649800000000     0          
C764     C      0.376400000000     0.821100000000     0.623600000000     0          
C765     C      0.405400000000     0.811700000000     0.594600000000     0          
H766     H      0.410700000000     0.786200000000     0.589300000000     0          
C767     C      0.424700000000     0.839800000000     0.575300000000     0          
H768     H      0.442900000000     0.833600000000     0.557100000000     0          
C769     C      0.356300000000     0.790400000000     0.643700000000     0          
C770     C      0.317350000000     0.732900000000     0.682650000000     0          
O771     O      0.962350000000     0.397140000000     0.037650000000     0          
O772     O      0.929560000000     0.442540000000     0.070440000000     0          
C773     C      0.939000000000     0.407600000000     0.061000000000     0          
C774     C      0.916500000000     0.377600000000     0.083500000000     0          
C775     C      0.889200000000     0.387000000000     0.110800000000     0          
H776     H      0.884300000000     0.412700000000     0.115700000000     0          
C777     C      0.868400000000     0.359100000000     0.131600000000     0          
H778     H      0.850200000000     0.366000000000     0.149800000000     0          
C779     C      0.876400000000     0.321100000000     0.123600000000     0          
C780     C      0.905400000000     0.311700000000     0.094600000000     0          
H781     H      0.910700000000     0.286200000000     0.089300000000     0          
C782     C      0.924700000000     0.339800000000     0.075300000000     0          
H783     H      0.942900000000     0.333600000000     0.057100000000     0          
C784     C      0.856300000000     0.290400000000     0.143700000000     0          
C785     C      0.817350000000     0.232900000000     0.182650000000     0          
O786     O      0.537650000000     0.537650000000     0.897140000000     0          
O787     O      0.570440000000     0.570440000000     0.942540000000     0          
C788     C      0.561000000000     0.561000000000     0.907600000000     0          
C789     C      0.583500000000     0.583500000000     0.877600000000     0          
C790     C      0.610800000000     0.610800000000     0.887000000000     0          
H791     H      0.615700000000     0.615700000000     0.912700000000     0          
C792     C      0.631600000000     0.631600000000     0.859100000000     0          
H793     H      0.649800000000     0.649800000000     0.866000000000     0          
C794     C      0.623600000000     0.623600000000     0.821100000000     0          
C795     C      0.594600000000     0.594600000000     0.811700000000     0          
H796     H      0.589300000000     0.589300000000     0.786200000000     0          
C797     C      0.575300000000     0.575300000000     0.839800000000     0          
H798     H      0.557100000000     0.557100000000     0.833600000000     0          
C799     C      0.643700000000     0.643700000000     0.790400000000     0          
C800     C      0.682650000000     0.682650000000     0.732900000000     0          
O801     O      0.037650000000     0.037650000000     0.397140000000     0          
O802     O      0.070440000000     0.070440000000     0.442540000000     0          
C803     C      0.061000000000     0.061000000000     0.407600000000     0          
C804     C      0.083500000000     0.083500000000     0.377600000000     0          
C805     C      0.110800000000     0.110800000000     0.387000000000     0          
H806     H      0.115700000000     0.115700000000     0.412700000000     0          
C807     C      0.131600000000     0.131600000000     0.359100000000     0          
H808     H      0.149800000000     0.149800000000     0.366000000000     0          
C809     C      0.123600000000     0.123600000000     0.321100000000     0          
C810     C      0.094600000000     0.094600000000     0.311700000000     0          
H811     H      0.089300000000     0.089300000000     0.286200000000     0          
C812     C      0.075300000000     0.075300000000     0.339800000000     0          
H813     H      0.057100000000     0.057100000000     0.333600000000     0          
C814     C      0.143700000000     0.143700000000     0.290400000000     0          
C815     C      0.182650000000     0.182650000000     0.232900000000     0          
O816     O      0.462350000000     0.462350000000     0.897140000000     0          
O817     O      0.429560000000     0.429560000000     0.942540000000     0          
C818     C      0.439000000000     0.439000000000     0.907600000000     0          
C819     C      0.416500000000     0.416500000000     0.877600000000     0          
C820     C      0.389200000000     0.389200000000     0.887000000000     0          
H821     H      0.384300000000     0.384300000000     0.912700000000     0          
C822     C      0.368400000000     0.368400000000     0.859100000000     0          
H823     H      0.350200000000     0.350200000000     0.866000000000     0          
C824     C      0.376400000000     0.376400000000     0.821100000000     0          
C825     C      0.405400000000     0.405400000000     0.811700000000     0          
H826     H      0.410700000000     0.410700000000     0.786200000000     0          
C827     C      0.424700000000     0.424700000000     0.839800000000     0          
H828     H      0.442900000000     0.442900000000     0.833600000000     0          
C829     C      0.356300000000     0.356300000000     0.790400000000     0          
C830     C      0.317350000000     0.317350000000     0.732900000000     0          
O831     O      0.962350000000     0.962350000000     0.397140000000     0          
O832     O      0.929560000000     0.929560000000     0.442540000000     0          
C833     C      0.939000000000     0.939000000000     0.407600000000     0          
C834     C      0.916500000000     0.916500000000     0.377600000000     0          
C835     C      0.889200000000     0.889200000000     0.387000000000     0          
H836     H      0.884300000000     0.884300000000     0.412700000000     0          
C837     C      0.868400000000     0.868400000000     0.359100000000     0          
H838     H      0.850200000000     0.850200000000     0.366000000000     0          
C839     C      0.876400000000     0.876400000000     0.321100000000     0          
C840     C      0.905400000000     0.905400000000     0.311700000000     0          
H841     H      0.910700000000     0.910700000000     0.286200000000     0          
C842     C      0.924700000000     0.924700000000     0.339800000000     0          
H843     H      0.942900000000     0.942900000000     0.333600000000     0          
C844     C      0.856300000000     0.856300000000     0.290400000000     0          
C845     C      0.817350000000     0.817350000000     0.232900000000     0          
O846     O      0.537650000000     0.462350000000     0.102860000000     0          
O847     O      0.570440000000     0.429560000000     0.057460000000     0          
C848     C      0.561000000000     0.439000000000     0.092400000000     0          
C849     C      0.583500000000     0.416500000000     0.122400000000     0          
C850     C      0.610800000000     0.389200000000     0.113000000000     0          
H851     H      0.615700000000     0.384300000000     0.087300000000     0          
C852     C      0.631600000000     0.368400000000     0.140900000000     0          
H853     H      0.649800000000     0.350200000000     0.134000000000     0          
C854     C      0.623600000000     0.376400000000     0.178900000000     0          
C855     C      0.594600000000     0.405400000000     0.188300000000     0          
H856     H      0.589300000000     0.410700000000     0.213800000000     0          
C857     C      0.575300000000     0.424700000000     0.160200000000     0          
H858     H      0.557100000000     0.442900000000     0.166400000000     0          
C859     C      0.643700000000     0.356300000000     0.209600000000     0          
C860     C      0.682650000000     0.317350000000     0.267100000000     0          
O861     O      0.037650000000     0.962350000000     0.602860000000     0          
O862     O      0.070440000000     0.929560000000     0.557460000000     0          
C863     C      0.061000000000     0.939000000000     0.592400000000     0          
C864     C      0.083500000000     0.916500000000     0.622400000000     0          
C865     C      0.110800000000     0.889200000000     0.613000000000     0          
H866     H      0.115700000000     0.884300000000     0.587300000000     0          
C867     C      0.131600000000     0.868400000000     0.640900000000     0          
H868     H      0.149800000000     0.850200000000     0.634000000000     0          
C869     C      0.123600000000     0.876400000000     0.678900000000     0          
C870     C      0.094600000000     0.905400000000     0.688300000000     0          
H871     H      0.089300000000     0.910700000000     0.713800000000     0          
C872     C      0.075300000000     0.924700000000     0.660200000000     0          
H873     H      0.057100000000     0.942900000000     0.666400000000     0          
C874     C      0.143700000000     0.856300000000     0.709600000000     0          
C875     C      0.182650000000     0.817350000000     0.767100000000     0          
O876     O      0.462350000000     0.537650000000     0.102860000000     0          
O877     O      0.429560000000     0.570440000000     0.057460000000     0          
C878     C      0.439000000000     0.561000000000     0.092400000000     0          
C879     C      0.416500000000     0.583500000000     0.122400000000     0          
C880     C      0.389200000000     0.610800000000     0.113000000000     0          
H881     H      0.384300000000     0.615700000000     0.087300000000     0          
C882     C      0.368400000000     0.631600000000     0.140900000000     0          
H883     H      0.350200000000     0.649800000000     0.134000000000     0          
C884     C      0.376400000000     0.623600000000     0.178900000000     0          
C885     C      0.405400000000     0.594600000000     0.188300000000     0          
H886     H      0.410700000000     0.589300000000     0.213800000000     0          
C887     C      0.424700000000     0.575300000000     0.160200000000     0          
H888     H      0.442900000000     0.557100000000     0.166400000000     0          
C889     C      0.356300000000     0.643700000000     0.209600000000     0          
C890     C      0.317350000000     0.682650000000     0.267100000000     0          
O891     O      0.962350000000     0.037650000000     0.602860000000     0          
O892     O      0.929560000000     0.070440000000     0.557460000000     0          
C893     C      0.939000000000     0.061000000000     0.592400000000     0          
C894     C      0.916500000000     0.083500000000     0.622400000000     0          
C895     C      0.889200000000     0.110800000000     0.613000000000     0          
H896     H      0.884300000000     0.115700000000     0.587300000000     0          
C897     C      0.868400000000     0.131600000000     0.640900000000     0          
H898     H      0.850200000000     0.149800000000     0.634000000000     0          
C899     C      0.876400000000     0.123600000000     0.678900000000     0          
C900     C      0.905400000000     0.094600000000     0.688300000000     0          
H901     H      0.910700000000     0.089300000000     0.713800000000     0          
C902     C      0.924700000000     0.075300000000     0.660200000000     0          
H903     H      0.942900000000     0.057100000000     0.666400000000     0          
C904     C      0.856300000000     0.143700000000     0.709600000000     0          
C905     C      0.817350000000     0.182650000000     0.767100000000     0          
O906     O      0.537650000000     0.102860000000     0.462350000000     0          
O907     O      0.570440000000     0.057460000000     0.429560000000     0          
C908     C      0.561000000000     0.092400000000     0.439000000000     0          
C909     C      0.583500000000     0.122400000000     0.416500000000     0          
C910     C      0.610800000000     0.113000000000     0.389200000000     0          
H911     H      0.615700000000     0.087300000000     0.384300000000     0          
C912     C      0.631600000000     0.140900000000     0.368400000000     0          
H913     H      0.649800000000     0.134000000000     0.350200000000     0          
C914     C      0.623600000000     0.178900000000     0.376400000000     0          
C915     C      0.594600000000     0.188300000000     0.405400000000     0          
H916     H      0.589300000000     0.213800000000     0.410700000000     0          
C917     C      0.575300000000     0.160200000000     0.424700000000     0          
H918     H      0.557100000000     0.166400000000     0.442900000000     0          
C919     C      0.643700000000     0.209600000000     0.356300000000     0          
C920     C      0.682650000000     0.267100000000     0.317350000000     0          
O921     O      0.037650000000     0.602860000000     0.962350000000     0          
O922     O      0.070440000000     0.557460000000     0.929560000000     0          
C923     C      0.061000000000     0.592400000000     0.939000000000     0          
C924     C      0.083500000000     0.622400000000     0.916500000000     0          
C925     C      0.110800000000     0.613000000000     0.889200000000     0          
H926     H      0.115700000000     0.587300000000     0.884300000000     0          
C927     C      0.131600000000     0.640900000000     0.868400000000     0          
H928     H      0.149800000000     0.634000000000     0.850200000000     0          
C929     C      0.123600000000     0.678900000000     0.876400000000     0          
C930     C      0.094600000000     0.688300000000     0.905400000000     0          
H931     H      0.089300000000     0.713800000000     0.910700000000     0          
C932     C      0.075300000000     0.660200000000     0.924700000000     0          
H933     H      0.057100000000     0.666400000000     0.942900000000     0          
C934     C      0.143700000000     0.709600000000     0.856300000000     0          
C935     C      0.182650000000     0.767100000000     0.817350000000     0          
O936     O      0.462350000000     0.102860000000     0.537650000000     0          
O937     O      0.429560000000     0.057460000000     0.570440000000     0          
C938     C      0.439000000000     0.092400000000     0.561000000000     0          
C939     C      0.416500000000     0.122400000000     0.583500000000     0          
C940     C      0.389200000000     0.113000000000     0.610800000000     0          
H941     H      0.384300000000     0.087300000000     0.615700000000     0          
C942     C      0.368400000000     0.140900000000     0.631600000000     0          
H943     H      0.350200000000     0.134000000000     0.649800000000     0          
C944     C      0.376400000000     0.178900000000     0.623600000000     0          
C945     C      0.405400000000     0.188300000000     0.594600000000     0          
H946     H      0.410700000000     0.213800000000     0.589300000000     0          
C947     C      0.424700000000     0.160200000000     0.575300000000     0          
H948     H      0.442900000000     0.166400000000     0.557100000000     0          
C949     C      0.356300000000     0.209600000000     0.643700000000     0          
C950     C      0.317350000000     0.267100000000     0.682650000000     0          
O951     O      0.962350000000     0.602860000000     0.037650000000     0          
O952     O      0.929560000000     0.557460000000     0.070440000000     0          
C953     C      0.939000000000     0.592400000000     0.061000000000     0          
C954     C      0.916500000000     0.622400000000     0.083500000000     0          
C955     C      0.889200000000     0.613000000000     0.110800000000     0          
H956     H      0.884300000000     0.587300000000     0.115700000000     0          
C957     C      0.868400000000     0.640900000000     0.131600000000     0          
H958     H      0.850200000000     0.634000000000     0.149800000000     0          
C959     C      0.876400000000     0.678900000000     0.123600000000     0          
C960     C      0.905400000000     0.688300000000     0.094600000000     0          
H961     H      0.910700000000     0.713800000000     0.089300000000     0          
C962     C      0.924700000000     0.660200000000     0.075300000000     0          
H963     H      0.942900000000     0.666400000000     0.057100000000     0          
C964     C      0.856300000000     0.709600000000     0.143700000000     0          
C965     C      0.817350000000     0.767100000000     0.182650000000     0          
O966     O      0.462350000000     0.897140000000     0.462350000000     0          
O967     O      0.429560000000     0.942540000000     0.429560000000     0          
C968     C      0.439000000000     0.907600000000     0.439000000000     0          
C969     C      0.416500000000     0.877600000000     0.416500000000     0          
C970     C      0.389200000000     0.887000000000     0.389200000000     0          
H971     H      0.384300000000     0.912700000000     0.384300000000     0          
C972     C      0.368400000000     0.859100000000     0.368400000000     0          
H973     H      0.350200000000     0.866000000000     0.350200000000     0          
C974     C      0.376400000000     0.821100000000     0.376400000000     0          
C975     C      0.405400000000     0.811700000000     0.405400000000     0          
H976     H      0.410700000000     0.786200000000     0.410700000000     0          
C977     C      0.424700000000     0.839800000000     0.424700000000     0          
H978     H      0.442900000000     0.833600000000     0.442900000000     0          
C979     C      0.356300000000     0.790400000000     0.356300000000     0          
C980     C      0.317350000000     0.732900000000     0.317350000000     0          
O981     O      0.962350000000     0.397140000000     0.962350000000     0          
O982     O      0.929560000000     0.442540000000     0.929560000000     0          
C983     C      0.939000000000     0.407600000000     0.939000000000     0          
C984     C      0.916500000000     0.377600000000     0.916500000000     0          
C985     C      0.889200000000     0.387000000000     0.889200000000     0          
H986     H      0.884300000000     0.412700000000     0.884300000000     0          
C987     C      0.868400000000     0.359100000000     0.868400000000     0          
H988     H      0.850200000000     0.366000000000     0.850200000000     0          
C989     C      0.876400000000     0.321100000000     0.876400000000     0          
C990     C      0.905400000000     0.311700000000     0.905400000000     0          
H991     H      0.910700000000     0.286200000000     0.910700000000     0          
C992     C      0.924700000000     0.339800000000     0.924700000000     0          
H993     H      0.942900000000     0.333600000000     0.942900000000     0          
C994     C      0.856300000000     0.290400000000     0.856300000000     0          
C995     C      0.817350000000     0.232900000000     0.817350000000     0          
O996     O      0.537650000000     0.897140000000     0.537650000000     0          
O997     O      0.570440000000     0.942540000000     0.570440000000     0          
C998     C      0.561000000000     0.907600000000     0.561000000000     0          
C999     C      0.583500000000     0.877600000000     0.583500000000     0          
C1000    C      0.610800000000     0.887000000000     0.610800000000     0          
H1001    H      0.615700000000     0.912700000000     0.615700000000     0          
C1002    C      0.631600000000     0.859100000000     0.631600000000     0          
H1003    H      0.649800000000     0.866000000000     0.649800000000     0          
C1004    C      0.623600000000     0.821100000000     0.623600000000     0          
C1005    C      0.594600000000     0.811700000000     0.594600000000     0          
H1006    H      0.589300000000     0.786200000000     0.589300000000     0          
C1007    C      0.575300000000     0.839800000000     0.575300000000     0          
H1008    H      0.557100000000     0.833600000000     0.557100000000     0          
C1009    C      0.643700000000     0.790400000000     0.643700000000     0          
C1010    C      0.682650000000     0.732900000000     0.682650000000     0          
O1011    O      0.037650000000     0.397140000000     0.037650000000     0          
O1012    O      0.070440000000     0.442540000000     0.070440000000     0          
C1013    C      0.061000000000     0.407600000000     0.061000000000     0          
C1014    C      0.083500000000     0.377600000000     0.083500000000     0          
C1015    C      0.110800000000     0.387000000000     0.110800000000     0          
H1016    H      0.115700000000     0.412700000000     0.115700000000     0          
C1017    C      0.131600000000     0.359100000000     0.131600000000     0          
H1018    H      0.149800000000     0.366000000000     0.149800000000     0          
C1019    C      0.123600000000     0.321100000000     0.123600000000     0          
C1020    C      0.094600000000     0.311700000000     0.094600000000     0          
H1021    H      0.089300000000     0.286200000000     0.089300000000     0          
C1022    C      0.075300000000     0.339800000000     0.075300000000     0          
H1023    H      0.057100000000     0.333600000000     0.057100000000     0          
C1024    C      0.143700000000     0.290400000000     0.143700000000     0          
C1025    C      0.182650000000     0.232900000000     0.182650000000     0          
O1026    O      0.102860000000     0.537650000000     0.462350000000     0          
O1027    O      0.057460000000     0.570440000000     0.429560000000     0          
C1028    C      0.092400000000     0.561000000000     0.439000000000     0          
C1029    C      0.122400000000     0.583500000000     0.416500000000     0          
C1030    C      0.113000000000     0.610800000000     0.389200000000     0          
H1031    H      0.087300000000     0.615700000000     0.384300000000     0          
C1032    C      0.140900000000     0.631600000000     0.368400000000     0          
H1033    H      0.134000000000     0.649800000000     0.350200000000     0          
C1034    C      0.178900000000     0.623600000000     0.376400000000     0          
C1035    C      0.188300000000     0.594600000000     0.405400000000     0          
H1036    H      0.213800000000     0.589300000000     0.410700000000     0          
C1037    C      0.160200000000     0.575300000000     0.424700000000     0          
H1038    H      0.166400000000     0.557100000000     0.442900000000     0          
C1039    C      0.209600000000     0.643700000000     0.356300000000     0          
C1040    C      0.267100000000     0.682650000000     0.317350000000     0          
O1041    O      0.602860000000     0.037650000000     0.962350000000     0          
O1042    O      0.557460000000     0.070440000000     0.929560000000     0          
C1043    C      0.592400000000     0.061000000000     0.939000000000     0          
C1044    C      0.622400000000     0.083500000000     0.916500000000     0          
C1045    C      0.613000000000     0.110800000000     0.889200000000     0          
H1046    H      0.587300000000     0.115700000000     0.884300000000     0          
C1047    C      0.640900000000     0.131600000000     0.868400000000     0          
H1048    H      0.634000000000     0.149800000000     0.850200000000     0          
C1049    C      0.678900000000     0.123600000000     0.876400000000     0          
C1050    C      0.688300000000     0.094600000000     0.905400000000     0          
H1051    H      0.713800000000     0.089300000000     0.910700000000     0          
C1052    C      0.660200000000     0.075300000000     0.924700000000     0          
H1053    H      0.666400000000     0.057100000000     0.942900000000     0          
C1054    C      0.709600000000     0.143700000000     0.856300000000     0          
C1055    C      0.767100000000     0.182650000000     0.817350000000     0          
O1056    O      0.102860000000     0.462350000000     0.537650000000     0          
O1057    O      0.057460000000     0.429560000000     0.570440000000     0          
C1058    C      0.092400000000     0.439000000000     0.561000000000     0          
C1059    C      0.122400000000     0.416500000000     0.583500000000     0          
C1060    C      0.113000000000     0.389200000000     0.610800000000     0          
H1061    H      0.087300000000     0.384300000000     0.615700000000     0          
C1062    C      0.140900000000     0.368400000000     0.631600000000     0          
H1063    H      0.134000000000     0.350200000000     0.649800000000     0          
C1064    C      0.178900000000     0.376400000000     0.623600000000     0          
C1065    C      0.188300000000     0.405400000000     0.594600000000     0          
H1066    H      0.213800000000     0.410700000000     0.589300000000     0          
C1067    C      0.160200000000     0.424700000000     0.575300000000     0          
H1068    H      0.166400000000     0.442900000000     0.557100000000     0          
C1069    C      0.209600000000     0.356300000000     0.643700000000     0          
C1070    C      0.267100000000     0.317350000000     0.682650000000     0          
O1071    O      0.602860000000     0.962350000000     0.037650000000     0          
O1072    O      0.557460000000     0.929560000000     0.070440000000     0          
C1073    C      0.592400000000     0.939000000000     0.061000000000     0          
C1074    C      0.622400000000     0.916500000000     0.083500000000     0          
C1075    C      0.613000000000     0.889200000000     0.110800000000     0          
H1076    H      0.587300000000     0.884300000000     0.115700000000     0          
C1077    C      0.640900000000     0.868400000000     0.131600000000     0          
H1078    H      0.634000000000     0.850200000000     0.149800000000     0          
C1079    C      0.678900000000     0.876400000000     0.123600000000     0          
C1080    C      0.688300000000     0.905400000000     0.094600000000     0          
H1081    H      0.713800000000     0.910700000000     0.089300000000     0          
C1082    C      0.660200000000     0.924700000000     0.075300000000     0          
H1083    H      0.666400000000     0.942900000000     0.057100000000     0          
C1084    C      0.709600000000     0.856300000000     0.143700000000     0          
C1085    C      0.767100000000     0.817350000000     0.182650000000     0          
O1086    O      0.897140000000     0.537650000000     0.537650000000     0          
O1087    O      0.942540000000     0.570440000000     0.570440000000     0          
C1088    C      0.907600000000     0.561000000000     0.561000000000     0          
C1089    C      0.877600000000     0.583500000000     0.583500000000     0          
C1090    C      0.887000000000     0.610800000000     0.610800000000     0          
H1091    H      0.912700000000     0.615700000000     0.615700000000     0          
C1092    C      0.859100000000     0.631600000000     0.631600000000     0          
H1093    H      0.866000000000     0.649800000000     0.649800000000     0          
C1094    C      0.821100000000     0.623600000000     0.623600000000     0          
C1095    C      0.811700000000     0.594600000000     0.594600000000     0          
H1096    H      0.786200000000     0.589300000000     0.589300000000     0          
C1097    C      0.839800000000     0.575300000000     0.575300000000     0          
H1098    H      0.833600000000     0.557100000000     0.557100000000     0          
C1099    C      0.790400000000     0.643700000000     0.643700000000     0          
C1100    C      0.732900000000     0.682650000000     0.682650000000     0          
O1101    O      0.397140000000     0.037650000000     0.037650000000     0          
O1102    O      0.442540000000     0.070440000000     0.070440000000     0          
C1103    C      0.407600000000     0.061000000000     0.061000000000     0          
C1104    C      0.377600000000     0.083500000000     0.083500000000     0          
C1105    C      0.387000000000     0.110800000000     0.110800000000     0          
H1106    H      0.412700000000     0.115700000000     0.115700000000     0          
C1107    C      0.359100000000     0.131600000000     0.131600000000     0          
H1108    H      0.366000000000     0.149800000000     0.149800000000     0          
C1109    C      0.321100000000     0.123600000000     0.123600000000     0          
C1110    C      0.311700000000     0.094600000000     0.094600000000     0          
H1111    H      0.286200000000     0.089300000000     0.089300000000     0          
C1112    C      0.339800000000     0.075300000000     0.075300000000     0          
H1113    H      0.333600000000     0.057100000000     0.057100000000     0          
C1114    C      0.290400000000     0.143700000000     0.143700000000     0          
C1115    C      0.232900000000     0.182650000000     0.182650000000     0          
O1116    O      0.897140000000     0.462350000000     0.462350000000     0          
O1117    O      0.942540000000     0.429560000000     0.429560000000     0          
C1118    C      0.907600000000     0.439000000000     0.439000000000     0          
C1119    C      0.877600000000     0.416500000000     0.416500000000     0          
C1120    C      0.887000000000     0.389200000000     0.389200000000     0          
H1121    H      0.912700000000     0.384300000000     0.384300000000     0          
C1122    C      0.859100000000     0.368400000000     0.368400000000     0          
H1123    H      0.866000000000     0.350200000000     0.350200000000     0          
C1124    C      0.821100000000     0.376400000000     0.376400000000     0          
C1125    C      0.811700000000     0.405400000000     0.405400000000     0          
H1126    H      0.786200000000     0.410700000000     0.410700000000     0          
C1127    C      0.839800000000     0.424700000000     0.424700000000     0          
H1128    H      0.833600000000     0.442900000000     0.442900000000     0          
C1129    C      0.790400000000     0.356300000000     0.356300000000     0          
C1130    C      0.732900000000     0.317350000000     0.317350000000     0          
O1131    O      0.397140000000     0.962350000000     0.962350000000     0          
O1132    O      0.442540000000     0.929560000000     0.929560000000     0          
C1133    C      0.407600000000     0.939000000000     0.939000000000     0          
C1134    C      0.377600000000     0.916500000000     0.916500000000     0          
C1135    C      0.387000000000     0.889200000000     0.889200000000     0          
H1136    H      0.412700000000     0.884300000000     0.884300000000     0          
C1137    C      0.359100000000     0.868400000000     0.868400000000     0          
H1138    H      0.366000000000     0.850200000000     0.850200000000     0          
C1139    C      0.321100000000     0.876400000000     0.876400000000     0          
C1140    C      0.311700000000     0.905400000000     0.905400000000     0          
H1141    H      0.286200000000     0.910700000000     0.910700000000     0          
C1142    C      0.339800000000     0.924700000000     0.924700000000     0          
H1143    H      0.333600000000     0.942900000000     0.942900000000     0          
C1144    C      0.290400000000     0.856300000000     0.856300000000     0          
C1145    C      0.232900000000     0.817350000000     0.817350000000     0          
O1146    O      0.500000000000     0.450000000000     0.033440000000     0          
O1147    O      0.000000000000     0.950000000000     0.533440000000     0          
O1148    O      0.500000000000     0.550000000000     0.033440000000     0          
O1149    O      0.000000000000     0.050000000000     0.533440000000     0          
O1150    O      0.500000000000     0.450000000000     0.966560000000     0          
O1151    O      0.000000000000     0.950000000000     0.466560000000     0          
O1152    O      0.500000000000     0.550000000000     0.966560000000     0          
O1153    O      0.000000000000     0.050000000000     0.466560000000     0          
O1154    O      0.033440000000     0.500000000000     0.450000000000     0          
O1155    O      0.533440000000     0.000000000000     0.950000000000     0          
O1156    O      0.033440000000     0.500000000000     0.550000000000     0          
O1157    O      0.533440000000     0.000000000000     0.050000000000     0          
O1158    O      0.966560000000     0.500000000000     0.450000000000     0          
O1159    O      0.466560000000     0.000000000000     0.950000000000     0          
O1160    O      0.966560000000     0.500000000000     0.550000000000     0          
O1161    O      0.466560000000     0.000000000000     0.050000000000     0          
O1162    O      0.450000000000     0.033440000000     0.500000000000     0          
O1163    O      0.950000000000     0.533440000000     0.000000000000     0          
O1164    O      0.550000000000     0.033440000000     0.500000000000     0          
O1165    O      0.050000000000     0.533440000000     0.000000000000     0          
O1166    O      0.450000000000     0.966560000000     0.500000000000     0          
O1167    O      0.950000000000     0.466560000000     0.000000000000     0          
O1168    O      0.550000000000     0.966560000000     0.500000000000     0          
O1169    O      0.050000000000     0.466560000000     0.000000000000     0          
O1170    O      0.450000000000     0.500000000000     0.966560000000     0          
O1171    O      0.950000000000     0.000000000000     0.466560000000     0          
O1172    O      0.550000000000     0.500000000000     0.966560000000     0          
O1173    O      0.050000000000     0.000000000000     0.466560000000     0          
O1174    O      0.450000000000     0.500000000000     0.033440000000     0          
O1175    O      0.950000000000     0.000000000000     0.533440000000     0          
O1176    O      0.550000000000     0.500000000000     0.033440000000     0          
O1177    O      0.050000000000     0.000000000000     0.533440000000     0          
O1178    O      0.500000000000     0.033440000000     0.550000000000     0          
O1179    O      0.000000000000     0.533440000000     0.050000000000     0          
O1180    O      0.500000000000     0.033440000000     0.450000000000     0          
O1181    O      0.000000000000     0.533440000000     0.950000000000     0          
O1182    O      0.500000000000     0.966560000000     0.550000000000     0          
O1183    O      0.000000000000     0.466560000000     0.050000000000     0          
O1184    O      0.500000000000     0.966560000000     0.450000000000     0          
O1185    O      0.000000000000     0.466560000000     0.950000000000     0          
O1186    O      0.033440000000     0.450000000000     0.500000000000     0          
O1187    O      0.533440000000     0.950000000000     0.000000000000     0          
O1188    O      0.033440000000     0.550000000000     0.500000000000     0          
O1189    O      0.533440000000     0.050000000000     0.000000000000     0          
O1190    O      0.966560000000     0.450000000000     0.500000000000     0          
O1191    O      0.466560000000     0.950000000000     0.000000000000     0          
O1192    O      0.966560000000     0.550000000000     0.500000000000     0          
O1193    O      0.466560000000     0.050000000000     0.000000000000     0          
O1194    O      0.385900000000     0.451300000000     0.000000000000     0          
O1195    O      0.885900000000     0.951300000000     0.500000000000     0          
O1196    O      0.614100000000     0.548700000000     0.000000000000     0          
O1197    O      0.114100000000     0.048700000000     0.500000000000     0          
O1198    O      0.614100000000     0.451300000000     0.000000000000     0          
O1199    O      0.114100000000     0.951300000000     0.500000000000     0          
O1200    O      0.385900000000     0.548700000000     0.000000000000     0          
O1201    O      0.885900000000     0.048700000000     0.500000000000     0          
O1202    O      0.000000000000     0.385900000000     0.451300000000     0          
O1203    O      0.500000000000     0.885900000000     0.951300000000     0          
O1204    O      0.000000000000     0.614100000000     0.548700000000     0          
O1205    O      0.500000000000     0.114100000000     0.048700000000     0          
O1206    O      0.000000000000     0.614100000000     0.451300000000     0          
O1207    O      0.500000000000     0.114100000000     0.951300000000     0          
O1208    O      0.000000000000     0.385900000000     0.548700000000     0          
O1209    O      0.500000000000     0.885900000000     0.048700000000     0          
O1210    O      0.451300000000     0.000000000000     0.385900000000     0          
O1211    O      0.951300000000     0.500000000000     0.885900000000     0          
O1212    O      0.548700000000     0.000000000000     0.614100000000     0          
O1213    O      0.048700000000     0.500000000000     0.114100000000     0          
O1214    O      0.451300000000     0.000000000000     0.614100000000     0          
O1215    O      0.951300000000     0.500000000000     0.114100000000     0          
O1216    O      0.548700000000     0.000000000000     0.385900000000     0          
O1217    O      0.048700000000     0.500000000000     0.885900000000     0          
O1218    O      0.451300000000     0.385900000000     0.000000000000     0          
O1219    O      0.951300000000     0.885900000000     0.500000000000     0          
O1220    O      0.548700000000     0.614100000000     0.000000000000     0          
O1221    O      0.048700000000     0.114100000000     0.500000000000     0          
O1222    O      0.451300000000     0.614100000000     0.000000000000     0          
O1223    O      0.951300000000     0.114100000000     0.500000000000     0          
O1224    O      0.548700000000     0.385900000000     0.000000000000     0          
O1225    O      0.048700000000     0.885900000000     0.500000000000     0          
O1226    O      0.385900000000     0.000000000000     0.548700000000     0          
O1227    O      0.885900000000     0.500000000000     0.048700000000     0          
O1228    O      0.614100000000     0.000000000000     0.451300000000     0          
O1229    O      0.114100000000     0.500000000000     0.951300000000     0          
O1230    O      0.614100000000     0.000000000000     0.548700000000     0          
O1231    O      0.114100000000     0.500000000000     0.048700000000     0          
O1232    O      0.385900000000     0.000000000000     0.451300000000     0          
O1233    O      0.885900000000     0.500000000000     0.951300000000     0          
O1234    O      0.000000000000     0.451300000000     0.614100000000     0          
O1235    O      0.500000000000     0.951300000000     0.114100000000     0          
O1236    O      0.000000000000     0.548700000000     0.385900000000     0          
O1237    O      0.500000000000     0.048700000000     0.885900000000     0          
O1238    O      0.000000000000     0.451300000000     0.385900000000     0          
O1239    O      0.500000000000     0.951300000000     0.885900000000     0          
O1240    O      0.000000000000     0.548700000000     0.614100000000     0          
O1241    O      0.500000000000     0.048700000000     0.114100000000     0          
N1242    N      0.701900000000     0.701900000000     0.298100000000     0          
N1243    N      0.201900000000     0.201900000000     0.798100000000     0          
N1244    N      0.298100000000     0.298100000000     0.298100000000     0          
N1245    N      0.798100000000     0.798100000000     0.798100000000     0          
N1246    N      0.298100000000     0.701900000000     0.701900000000     0          
N1247    N      0.798100000000     0.201900000000     0.201900000000     0          
N1248    N      0.701900000000     0.298100000000     0.701900000000     0          
N1249    N      0.201900000000     0.798100000000     0.201900000000     0          
N1250    N      0.701900000000     0.701900000000     0.701900000000     0          
N1251    N      0.201900000000     0.201900000000     0.201900000000     0          
N1252    N      0.298100000000     0.298100000000     0.701900000000     0          
N1253    N      0.798100000000     0.798100000000     0.201900000000     0          
N1254    N      0.701900000000     0.298100000000     0.298100000000     0          
N1255    N      0.201900000000     0.798100000000     0.798100000000     0          
N1256    N      0.298100000000     0.701900000000     0.298100000000     0          
N1257    N      0.798100000000     0.201900000000     0.798100000000     0          


