data_VACLIX

_audit_creation_method RASPA-1.0
_audit_creation_date 2020-11-2
_audit_author_name 'Rocio Bueno-Perez'

_cell_length_a    38.3937
_cell_length_b    38.3937
_cell_length_c    38.3937
_cell_angle_alpha 90
_cell_angle_beta  90
_cell_angle_gamma 90
_cell_volume      56595.2

_symmetry_cell_setting          triclinic
_symmetry_space_group_name_Hall 'P 1'
_symmetry_space_group_name_H-M  'P 1'
_symmetry_Int_Tables_number     1

_symmetry_equiv_pos_as_xyz 'x,y,z'

loop_
_atom_site_label
_atom_site_type_symbol
_atom_site_fract_x
_atom_site_fract_y
_atom_site_fract_z
_atom_site_charge
O1       O      0.672140000000     0.814070000000     0.278500000000     0          
O2       O      0.652590000000     0.749580000000     0.299860000000     0          
C3       C      0.633320000000     0.876170000000     0.220200000000     0          
H4       H      0.647270000000     0.869140000000     0.194950000000     0          
C5       C      0.608390000000     0.902400000000     0.220400000000     0          
H6       H      0.602990000000     0.917940000000     0.195680000000     0          
C7       C      0.528820000000     0.926620000000     0.248500000000     0          
C8       C      0.517430000000     0.890680000000     0.247800000000     0          
H9       H      0.537460000000     0.868760000000     0.247370000000     0          
H10      H      0.681500000000     0.749580000000     0.299860000000     0          
O11      O      0.172140000000     0.314070000000     0.778500000000     0          
O12      O      0.152590000000     0.249580000000     0.799860000000     0          
C13      C      0.133320000000     0.376170000000     0.720200000000     0          
H14      H      0.147270000000     0.369140000000     0.694950000000     0          
C15      C      0.108390000000     0.402400000000     0.720400000000     0          
H16      H      0.102990000000     0.417940000000     0.695680000000     0          
C17      C      0.028820000000     0.426620000000     0.748500000000     0          
C18      C      0.017430000000     0.390680000000     0.747800000000     0          
H19      H      0.037460000000     0.368760000000     0.747370000000     0          
H20      H      0.181500000000     0.249580000000     0.799860000000     0          
O21      O      0.327860000000     0.185930000000     0.278500000000     0          
O22      O      0.347410000000     0.250420000000     0.299860000000     0          
C23      C      0.366680000000     0.123830000000     0.220200000000     0          
H24      H      0.352730000000     0.130860000000     0.194950000000     0          
C25      C      0.391610000000     0.097600000000     0.220400000000     0          
H26      H      0.397010000000     0.082060000000     0.195680000000     0          
C27      C      0.471180000000     0.073380000000     0.248500000000     0          
C28      C      0.482570000000     0.109320000000     0.247800000000     0          
H29      H      0.462540000000     0.131240000000     0.247370000000     0          
H30      H      0.318500000000     0.250420000000     0.299860000000     0          
O31      O      0.827860000000     0.685930000000     0.778500000000     0          
O32      O      0.847410000000     0.750420000000     0.799860000000     0          
C33      C      0.866680000000     0.623830000000     0.720200000000     0          
H34      H      0.852730000000     0.630860000000     0.694950000000     0          
C35      C      0.891610000000     0.597600000000     0.720400000000     0          
H36      H      0.897010000000     0.582060000000     0.695680000000     0          
C37      C      0.971180000000     0.573380000000     0.748500000000     0          
C38      C      0.982570000000     0.609320000000     0.747800000000     0          
H39      H      0.962540000000     0.631240000000     0.747370000000     0          
H40      H      0.818500000000     0.750420000000     0.799860000000     0          
O41      O      0.327860000000     0.814070000000     0.721500000000     0          
O42      O      0.347410000000     0.749580000000     0.700140000000     0          
C43      C      0.366680000000     0.876170000000     0.779800000000     0          
H44      H      0.352730000000     0.869140000000     0.805050000000     0          
C45      C      0.391610000000     0.902400000000     0.779600000000     0          
H46      H      0.397010000000     0.917940000000     0.804320000000     0          
C47      C      0.471180000000     0.926620000000     0.751500000000     0          
C48      C      0.482570000000     0.890680000000     0.752200000000     0          
H49      H      0.462540000000     0.868760000000     0.752630000000     0          
H50      H      0.318500000000     0.749580000000     0.700140000000     0          
O51      O      0.827860000000     0.314070000000     0.221500000000     0          
O52      O      0.847410000000     0.249580000000     0.200140000000     0          
C53      C      0.866680000000     0.376170000000     0.279800000000     0          
H54      H      0.852730000000     0.369140000000     0.305050000000     0          
C55      C      0.891610000000     0.402400000000     0.279600000000     0          
H56      H      0.897010000000     0.417940000000     0.304320000000     0          
C57      C      0.971180000000     0.426620000000     0.251500000000     0          
C58      C      0.982570000000     0.390680000000     0.252200000000     0          
H59      H      0.962540000000     0.368760000000     0.252630000000     0          
H60      H      0.818500000000     0.249580000000     0.200140000000     0          
O61      O      0.672140000000     0.185930000000     0.721500000000     0          
O62      O      0.652590000000     0.250420000000     0.700140000000     0          
C63      C      0.633320000000     0.123830000000     0.779800000000     0          
H64      H      0.647270000000     0.130860000000     0.805050000000     0          
C65      C      0.608390000000     0.097600000000     0.779600000000     0          
H66      H      0.602990000000     0.082060000000     0.804320000000     0          
C67      C      0.528820000000     0.073380000000     0.751500000000     0          
C68      C      0.517430000000     0.109320000000     0.752200000000     0          
H69      H      0.537460000000     0.131240000000     0.752630000000     0          
H70      H      0.681500000000     0.250420000000     0.700140000000     0          
O71      O      0.172140000000     0.685930000000     0.221500000000     0          
O72      O      0.152590000000     0.750420000000     0.200140000000     0          
C73      C      0.133320000000     0.623830000000     0.279800000000     0          
H74      H      0.147270000000     0.630860000000     0.305050000000     0          
C75      C      0.108390000000     0.597600000000     0.279600000000     0          
H76      H      0.102990000000     0.582060000000     0.304320000000     0          
C77      C      0.028820000000     0.573380000000     0.251500000000     0          
C78      C      0.017430000000     0.609320000000     0.252200000000     0          
H79      H      0.037460000000     0.631240000000     0.252630000000     0          
H80      H      0.181500000000     0.750420000000     0.200140000000     0          
O81      O      0.278500000000     0.672140000000     0.814070000000     0          
O82      O      0.299860000000     0.652590000000     0.749580000000     0          
C83      C      0.220200000000     0.633320000000     0.876170000000     0          
H84      H      0.194950000000     0.647270000000     0.869140000000     0          
C85      C      0.220400000000     0.608390000000     0.902400000000     0          
H86      H      0.195680000000     0.602990000000     0.917940000000     0          
C87      C      0.248500000000     0.528820000000     0.926620000000     0          
C88      C      0.247800000000     0.517430000000     0.890680000000     0          
H89      H      0.247370000000     0.537460000000     0.868760000000     0          
H90      H      0.299860000000     0.681500000000     0.749580000000     0          
O91      O      0.778500000000     0.172140000000     0.314070000000     0          
O92      O      0.799860000000     0.152590000000     0.249580000000     0          
C93      C      0.720200000000     0.133320000000     0.376170000000     0          
H94      H      0.694950000000     0.147270000000     0.369140000000     0          
C95      C      0.720400000000     0.108390000000     0.402400000000     0          
H96      H      0.695680000000     0.102990000000     0.417940000000     0          
C97      C      0.748500000000     0.028820000000     0.426620000000     0          
C98      C      0.747800000000     0.017430000000     0.390680000000     0          
H99      H      0.747370000000     0.037460000000     0.368760000000     0          
H100     H      0.799860000000     0.181500000000     0.249580000000     0          
O101     O      0.278500000000     0.327860000000     0.185930000000     0          
O102     O      0.299860000000     0.347410000000     0.250420000000     0          
C103     C      0.220200000000     0.366680000000     0.123830000000     0          
H104     H      0.194950000000     0.352730000000     0.130860000000     0          
C105     C      0.220400000000     0.391610000000     0.097600000000     0          
H106     H      0.195680000000     0.397010000000     0.082060000000     0          
C107     C      0.248500000000     0.471180000000     0.073380000000     0          
C108     C      0.247800000000     0.482570000000     0.109320000000     0          
H109     H      0.247370000000     0.462540000000     0.131240000000     0          
H110     H      0.299860000000     0.318500000000     0.250420000000     0          
O111     O      0.778500000000     0.827860000000     0.685930000000     0          
O112     O      0.799860000000     0.847410000000     0.750420000000     0          
C113     C      0.720200000000     0.866680000000     0.623830000000     0          
H114     H      0.694950000000     0.852730000000     0.630860000000     0          
C115     C      0.720400000000     0.891610000000     0.597600000000     0          
H116     H      0.695680000000     0.897010000000     0.582060000000     0          
C117     C      0.748500000000     0.971180000000     0.573380000000     0          
C118     C      0.747800000000     0.982570000000     0.609320000000     0          
H119     H      0.747370000000     0.962540000000     0.631240000000     0          
H120     H      0.799860000000     0.818500000000     0.750420000000     0          
O121     O      0.721500000000     0.327860000000     0.814070000000     0          
O122     O      0.700140000000     0.347410000000     0.749580000000     0          
C123     C      0.779800000000     0.366680000000     0.876170000000     0          
H124     H      0.805050000000     0.352730000000     0.869140000000     0          
C125     C      0.779600000000     0.391610000000     0.902400000000     0          
H126     H      0.804320000000     0.397010000000     0.917940000000     0          
C127     C      0.751500000000     0.471180000000     0.926620000000     0          
C128     C      0.752200000000     0.482570000000     0.890680000000     0          
H129     H      0.752630000000     0.462540000000     0.868760000000     0          
H130     H      0.700140000000     0.318500000000     0.749580000000     0          
O131     O      0.221500000000     0.827860000000     0.314070000000     0          
O132     O      0.200140000000     0.847410000000     0.249580000000     0          
C133     C      0.279800000000     0.866680000000     0.376170000000     0          
H134     H      0.305050000000     0.852730000000     0.369140000000     0          
C135     C      0.279600000000     0.891610000000     0.402400000000     0          
H136     H      0.304320000000     0.897010000000     0.417940000000     0          
C137     C      0.251500000000     0.971180000000     0.426620000000     0          
C138     C      0.252200000000     0.982570000000     0.390680000000     0          
H139     H      0.252630000000     0.962540000000     0.368760000000     0          
H140     H      0.200140000000     0.818500000000     0.249580000000     0          
O141     O      0.721500000000     0.672140000000     0.185930000000     0          
O142     O      0.700140000000     0.652590000000     0.250420000000     0          
C143     C      0.779800000000     0.633320000000     0.123830000000     0          
H144     H      0.805050000000     0.647270000000     0.130860000000     0          
C145     C      0.779600000000     0.608390000000     0.097600000000     0          
H146     H      0.804320000000     0.602990000000     0.082060000000     0          
C147     C      0.751500000000     0.528820000000     0.073380000000     0          
C148     C      0.752200000000     0.517430000000     0.109320000000     0          
H149     H      0.752630000000     0.537460000000     0.131240000000     0          
H150     H      0.700140000000     0.681500000000     0.250420000000     0          
O151     O      0.221500000000     0.172140000000     0.685930000000     0          
O152     O      0.200140000000     0.152590000000     0.750420000000     0          
C153     C      0.279800000000     0.133320000000     0.623830000000     0          
H154     H      0.305050000000     0.147270000000     0.630860000000     0          
C155     C      0.279600000000     0.108390000000     0.597600000000     0          
H156     H      0.304320000000     0.102990000000     0.582060000000     0          
C157     C      0.251500000000     0.028820000000     0.573380000000     0          
C158     C      0.252200000000     0.017430000000     0.609320000000     0          
H159     H      0.252630000000     0.037460000000     0.631240000000     0          
H160     H      0.200140000000     0.181500000000     0.750420000000     0          
O161     O      0.814070000000     0.278500000000     0.672140000000     0          
O162     O      0.749580000000     0.299860000000     0.652590000000     0          
C163     C      0.876170000000     0.220200000000     0.633320000000     0          
H164     H      0.869140000000     0.194950000000     0.647270000000     0          
C165     C      0.902400000000     0.220400000000     0.608390000000     0          
H166     H      0.917940000000     0.195680000000     0.602990000000     0          
C167     C      0.926620000000     0.248500000000     0.528820000000     0          
C168     C      0.890680000000     0.247800000000     0.517430000000     0          
H169     H      0.868760000000     0.247370000000     0.537460000000     0          
H170     H      0.749580000000     0.299860000000     0.681500000000     0          
O171     O      0.314070000000     0.778500000000     0.172140000000     0          
O172     O      0.249580000000     0.799860000000     0.152590000000     0          
C173     C      0.376170000000     0.720200000000     0.133320000000     0          
H174     H      0.369140000000     0.694950000000     0.147270000000     0          
C175     C      0.402400000000     0.720400000000     0.108390000000     0          
H176     H      0.417940000000     0.695680000000     0.102990000000     0          
C177     C      0.426620000000     0.748500000000     0.028820000000     0          
C178     C      0.390680000000     0.747800000000     0.017430000000     0          
H179     H      0.368760000000     0.747370000000     0.037460000000     0          
H180     H      0.249580000000     0.799860000000     0.181500000000     0          
O181     O      0.185930000000     0.278500000000     0.327860000000     0          
O182     O      0.250420000000     0.299860000000     0.347410000000     0          
C183     C      0.123830000000     0.220200000000     0.366680000000     0          
H184     H      0.130860000000     0.194950000000     0.352730000000     0          
C185     C      0.097600000000     0.220400000000     0.391610000000     0          
H186     H      0.082060000000     0.195680000000     0.397010000000     0          
C187     C      0.073380000000     0.248500000000     0.471180000000     0          
C188     C      0.109320000000     0.247800000000     0.482570000000     0          
H189     H      0.131240000000     0.247370000000     0.462540000000     0          
H190     H      0.250420000000     0.299860000000     0.318500000000     0          
O191     O      0.685930000000     0.778500000000     0.827860000000     0          
O192     O      0.750420000000     0.799860000000     0.847410000000     0          
C193     C      0.623830000000     0.720200000000     0.866680000000     0          
H194     H      0.630860000000     0.694950000000     0.852730000000     0          
C195     C      0.597600000000     0.720400000000     0.891610000000     0          
H196     H      0.582060000000     0.695680000000     0.897010000000     0          
C197     C      0.573380000000     0.748500000000     0.971180000000     0          
C198     C      0.609320000000     0.747800000000     0.982570000000     0          
H199     H      0.631240000000     0.747370000000     0.962540000000     0          
H200     H      0.750420000000     0.799860000000     0.818500000000     0          
O201     O      0.814070000000     0.721500000000     0.327860000000     0          
O202     O      0.749580000000     0.700140000000     0.347410000000     0          
C203     C      0.876170000000     0.779800000000     0.366680000000     0          
H204     H      0.869140000000     0.805050000000     0.352730000000     0          
C205     C      0.902400000000     0.779600000000     0.391610000000     0          
H206     H      0.917940000000     0.804320000000     0.397010000000     0          
C207     C      0.926620000000     0.751500000000     0.471180000000     0          
C208     C      0.890680000000     0.752200000000     0.482570000000     0          
H209     H      0.868760000000     0.752630000000     0.462540000000     0          
H210     H      0.749580000000     0.700140000000     0.318500000000     0          
O211     O      0.314070000000     0.221500000000     0.827860000000     0          
O212     O      0.249580000000     0.200140000000     0.847410000000     0          
C213     C      0.376170000000     0.279800000000     0.866680000000     0          
H214     H      0.369140000000     0.305050000000     0.852730000000     0          
C215     C      0.402400000000     0.279600000000     0.891610000000     0          
H216     H      0.417940000000     0.304320000000     0.897010000000     0          
C217     C      0.426620000000     0.251500000000     0.971180000000     0          
C218     C      0.390680000000     0.252200000000     0.982570000000     0          
H219     H      0.368760000000     0.252630000000     0.962540000000     0          
H220     H      0.249580000000     0.200140000000     0.818500000000     0          
O221     O      0.185930000000     0.721500000000     0.672140000000     0          
O222     O      0.250420000000     0.700140000000     0.652590000000     0          
C223     C      0.123830000000     0.779800000000     0.633320000000     0          
H224     H      0.130860000000     0.805050000000     0.647270000000     0          
C225     C      0.097600000000     0.779600000000     0.608390000000     0          
H226     H      0.082060000000     0.804320000000     0.602990000000     0          
C227     C      0.073380000000     0.751500000000     0.528820000000     0          
C228     C      0.109320000000     0.752200000000     0.517430000000     0          
H229     H      0.131240000000     0.752630000000     0.537460000000     0          
H230     H      0.250420000000     0.700140000000     0.681500000000     0          
O231     O      0.685930000000     0.221500000000     0.172140000000     0          
O232     O      0.750420000000     0.200140000000     0.152590000000     0          
C233     C      0.623830000000     0.279800000000     0.133320000000     0          
H234     H      0.630860000000     0.305050000000     0.147270000000     0          
C235     C      0.597600000000     0.279600000000     0.108390000000     0          
H236     H      0.582060000000     0.304320000000     0.102990000000     0          
C237     C      0.573380000000     0.251500000000     0.028820000000     0          
C238     C      0.609320000000     0.252200000000     0.017430000000     0          
H239     H      0.631240000000     0.252630000000     0.037460000000     0          
H240     H      0.750420000000     0.200140000000     0.181500000000     0          
O241     O      0.814070000000     0.672140000000     0.721500000000     0          
O242     O      0.749580000000     0.652590000000     0.700140000000     0          
C243     C      0.876170000000     0.633320000000     0.779800000000     0          
H244     H      0.869140000000     0.647270000000     0.805050000000     0          
C245     C      0.902400000000     0.608390000000     0.779600000000     0          
H246     H      0.917940000000     0.602990000000     0.804320000000     0          
C247     C      0.926620000000     0.528820000000     0.751500000000     0          
C248     C      0.890680000000     0.517430000000     0.752200000000     0          
H249     H      0.868760000000     0.537460000000     0.752630000000     0          
H250     H      0.749580000000     0.681500000000     0.700140000000     0          
O251     O      0.314070000000     0.172140000000     0.221500000000     0          
O252     O      0.249580000000     0.152590000000     0.200140000000     0          
C253     C      0.376170000000     0.133320000000     0.279800000000     0          
H254     H      0.369140000000     0.147270000000     0.305050000000     0          
C255     C      0.402400000000     0.108390000000     0.279600000000     0          
H256     H      0.417940000000     0.102990000000     0.304320000000     0          
C257     C      0.426620000000     0.028820000000     0.251500000000     0          
C258     C      0.390680000000     0.017430000000     0.252200000000     0          
H259     H      0.368760000000     0.037460000000     0.252630000000     0          
H260     H      0.249580000000     0.181500000000     0.200140000000     0          
O261     O      0.185930000000     0.327860000000     0.721500000000     0          
O262     O      0.250420000000     0.347410000000     0.700140000000     0          
C263     C      0.123830000000     0.366680000000     0.779800000000     0          
H264     H      0.130860000000     0.352730000000     0.805050000000     0          
C265     C      0.097600000000     0.391610000000     0.779600000000     0          
H266     H      0.082060000000     0.397010000000     0.804320000000     0          
C267     C      0.073380000000     0.471180000000     0.751500000000     0          
C268     C      0.109320000000     0.482570000000     0.752200000000     0          
H269     H      0.131240000000     0.462540000000     0.752630000000     0          
H270     H      0.250420000000     0.318500000000     0.700140000000     0          
O271     O      0.685930000000     0.827860000000     0.221500000000     0          
O272     O      0.750420000000     0.847410000000     0.200140000000     0          
C273     C      0.623830000000     0.866680000000     0.279800000000     0          
H274     H      0.630860000000     0.852730000000     0.305050000000     0          
C275     C      0.597600000000     0.891610000000     0.279600000000     0          
H276     H      0.582060000000     0.897010000000     0.304320000000     0          
C277     C      0.573380000000     0.971180000000     0.251500000000     0          
C278     C      0.609320000000     0.982570000000     0.252200000000     0          
H279     H      0.631240000000     0.962540000000     0.252630000000     0          
H280     H      0.750420000000     0.818500000000     0.200140000000     0          
O281     O      0.814070000000     0.327860000000     0.278500000000     0          
O282     O      0.749580000000     0.347410000000     0.299860000000     0          
C283     C      0.876170000000     0.366680000000     0.220200000000     0          
H284     H      0.869140000000     0.352730000000     0.194950000000     0          
C285     C      0.902400000000     0.391610000000     0.220400000000     0          
H286     H      0.917940000000     0.397010000000     0.195680000000     0          
C287     C      0.926620000000     0.471180000000     0.248500000000     0          
C288     C      0.890680000000     0.482570000000     0.247800000000     0          
H289     H      0.868760000000     0.462540000000     0.247370000000     0          
H290     H      0.749580000000     0.318500000000     0.299860000000     0          
O291     O      0.314070000000     0.827860000000     0.778500000000     0          
O292     O      0.249580000000     0.847410000000     0.799860000000     0          
C293     C      0.376170000000     0.866680000000     0.720200000000     0          
H294     H      0.369140000000     0.852730000000     0.694950000000     0          
C295     C      0.402400000000     0.891610000000     0.720400000000     0          
H296     H      0.417940000000     0.897010000000     0.695680000000     0          
C297     C      0.426620000000     0.971180000000     0.748500000000     0          
C298     C      0.390680000000     0.982570000000     0.747800000000     0          
H299     H      0.368760000000     0.962540000000     0.747370000000     0          
H300     H      0.249580000000     0.818500000000     0.799860000000     0          
O301     O      0.185930000000     0.672140000000     0.278500000000     0          
O302     O      0.250420000000     0.652590000000     0.299860000000     0          
C303     C      0.123830000000     0.633320000000     0.220200000000     0          
H304     H      0.130860000000     0.647270000000     0.194950000000     0          
C305     C      0.097600000000     0.608390000000     0.220400000000     0          
H306     H      0.082060000000     0.602990000000     0.195680000000     0          
C307     C      0.073380000000     0.528820000000     0.248500000000     0          
C308     C      0.109320000000     0.517430000000     0.247800000000     0          
H309     H      0.131240000000     0.537460000000     0.247370000000     0          
H310     H      0.250420000000     0.681500000000     0.299860000000     0          
O311     O      0.685930000000     0.172140000000     0.778500000000     0          
O312     O      0.750420000000     0.152590000000     0.799860000000     0          
C313     C      0.623830000000     0.133320000000     0.720200000000     0          
H314     H      0.630860000000     0.147270000000     0.694950000000     0          
C315     C      0.597600000000     0.108390000000     0.720400000000     0          
H316     H      0.582060000000     0.102990000000     0.695680000000     0          
C317     C      0.573380000000     0.028820000000     0.748500000000     0          
C318     C      0.609320000000     0.017430000000     0.747800000000     0          
H319     H      0.631240000000     0.037460000000     0.747370000000     0          
H320     H      0.750420000000     0.181500000000     0.799860000000     0          
O321     O      0.672140000000     0.278500000000     0.185930000000     0          
O322     O      0.652590000000     0.299860000000     0.250420000000     0          
C323     C      0.633320000000     0.220200000000     0.123830000000     0          
H324     H      0.647270000000     0.194950000000     0.130860000000     0          
C325     C      0.608390000000     0.220400000000     0.097600000000     0          
H326     H      0.602990000000     0.195680000000     0.082060000000     0          
C327     C      0.528820000000     0.248500000000     0.073380000000     0          
C328     C      0.517430000000     0.247800000000     0.109320000000     0          
H329     H      0.537460000000     0.247370000000     0.131240000000     0          
H330     H      0.681500000000     0.299860000000     0.250420000000     0          
O331     O      0.172140000000     0.778500000000     0.685930000000     0          
O332     O      0.152590000000     0.799860000000     0.750420000000     0          
C333     C      0.133320000000     0.720200000000     0.623830000000     0          
H334     H      0.147270000000     0.694950000000     0.630860000000     0          
C335     C      0.108390000000     0.720400000000     0.597600000000     0          
H336     H      0.102990000000     0.695680000000     0.582060000000     0          
C337     C      0.028820000000     0.748500000000     0.573380000000     0          
C338     C      0.017430000000     0.747800000000     0.609320000000     0          
H339     H      0.037460000000     0.747370000000     0.631240000000     0          
H340     H      0.181500000000     0.799860000000     0.750420000000     0          
O341     O      0.327860000000     0.278500000000     0.814070000000     0          
O342     O      0.347410000000     0.299860000000     0.749580000000     0          
C343     C      0.366680000000     0.220200000000     0.876170000000     0          
H344     H      0.352730000000     0.194950000000     0.869140000000     0          
C345     C      0.391610000000     0.220400000000     0.902400000000     0          
H346     H      0.397010000000     0.195680000000     0.917940000000     0          
C347     C      0.471180000000     0.248500000000     0.926620000000     0          
C348     C      0.482570000000     0.247800000000     0.890680000000     0          
H349     H      0.462540000000     0.247370000000     0.868760000000     0          
H350     H      0.318500000000     0.299860000000     0.749580000000     0          
O351     O      0.827860000000     0.778500000000     0.314070000000     0          
O352     O      0.847410000000     0.799860000000     0.249580000000     0          
C353     C      0.866680000000     0.720200000000     0.376170000000     0          
H354     H      0.852730000000     0.694950000000     0.369140000000     0          
C355     C      0.891610000000     0.720400000000     0.402400000000     0          
H356     H      0.897010000000     0.695680000000     0.417940000000     0          
C357     C      0.971180000000     0.748500000000     0.426620000000     0          
C358     C      0.982570000000     0.747800000000     0.390680000000     0          
H359     H      0.962540000000     0.747370000000     0.368760000000     0          
H360     H      0.818500000000     0.799860000000     0.249580000000     0          
O361     O      0.327860000000     0.721500000000     0.185930000000     0          
O362     O      0.347410000000     0.700140000000     0.250420000000     0          
C363     C      0.366680000000     0.779800000000     0.123830000000     0          
H364     H      0.352730000000     0.805050000000     0.130860000000     0          
C365     C      0.391610000000     0.779600000000     0.097600000000     0          
H366     H      0.397010000000     0.804320000000     0.082060000000     0          
C367     C      0.471180000000     0.751500000000     0.073380000000     0          
C368     C      0.482570000000     0.752200000000     0.109320000000     0          
H369     H      0.462540000000     0.752630000000     0.131240000000     0          
H370     H      0.318500000000     0.700140000000     0.250420000000     0          
O371     O      0.827860000000     0.221500000000     0.685930000000     0          
O372     O      0.847410000000     0.200140000000     0.750420000000     0          
C373     C      0.866680000000     0.279800000000     0.623830000000     0          
H374     H      0.852730000000     0.305050000000     0.630860000000     0          
C375     C      0.891610000000     0.279600000000     0.597600000000     0          
H376     H      0.897010000000     0.304320000000     0.582060000000     0          
C377     C      0.971180000000     0.251500000000     0.573380000000     0          
C378     C      0.982570000000     0.252200000000     0.609320000000     0          
H379     H      0.962540000000     0.252630000000     0.631240000000     0          
H380     H      0.818500000000     0.200140000000     0.750420000000     0          
O381     O      0.672140000000     0.721500000000     0.814070000000     0          
O382     O      0.652590000000     0.700140000000     0.749580000000     0          
C383     C      0.633320000000     0.779800000000     0.876170000000     0          
H384     H      0.647270000000     0.805050000000     0.869140000000     0          
C385     C      0.608390000000     0.779600000000     0.902400000000     0          
H386     H      0.602990000000     0.804320000000     0.917940000000     0          
C387     C      0.528820000000     0.751500000000     0.926620000000     0          
C388     C      0.517430000000     0.752200000000     0.890680000000     0          
H389     H      0.537460000000     0.752630000000     0.868760000000     0          
H390     H      0.681500000000     0.700140000000     0.749580000000     0          
O391     O      0.172140000000     0.221500000000     0.314070000000     0          
O392     O      0.152590000000     0.200140000000     0.249580000000     0          
C393     C      0.133320000000     0.279800000000     0.376170000000     0          
H394     H      0.147270000000     0.305050000000     0.369140000000     0          
C395     C      0.108390000000     0.279600000000     0.402400000000     0          
H396     H      0.102990000000     0.304320000000     0.417940000000     0          
C397     C      0.028820000000     0.251500000000     0.426620000000     0          
C398     C      0.017430000000     0.252200000000     0.390680000000     0          
H399     H      0.037460000000     0.252630000000     0.368760000000     0          
H400     H      0.181500000000     0.200140000000     0.249580000000     0          
O401     O      0.278500000000     0.814070000000     0.327860000000     0          
O402     O      0.299860000000     0.749580000000     0.347410000000     0          
C403     C      0.220200000000     0.876170000000     0.366680000000     0          
H404     H      0.194950000000     0.869140000000     0.352730000000     0          
C405     C      0.220400000000     0.902400000000     0.391610000000     0          
H406     H      0.195680000000     0.917940000000     0.397010000000     0          
C407     C      0.248500000000     0.926620000000     0.471180000000     0          
C408     C      0.247800000000     0.890680000000     0.482570000000     0          
H409     H      0.247370000000     0.868760000000     0.462540000000     0          
H410     H      0.299860000000     0.749580000000     0.318500000000     0          
O411     O      0.778500000000     0.314070000000     0.827860000000     0          
O412     O      0.799860000000     0.249580000000     0.847410000000     0          
C413     C      0.720200000000     0.376170000000     0.866680000000     0          
H414     H      0.694950000000     0.369140000000     0.852730000000     0          
C415     C      0.720400000000     0.402400000000     0.891610000000     0          
H416     H      0.695680000000     0.417940000000     0.897010000000     0          
C417     C      0.748500000000     0.426620000000     0.971180000000     0          
C418     C      0.747800000000     0.390680000000     0.982570000000     0          
H419     H      0.747370000000     0.368760000000     0.962540000000     0          
H420     H      0.799860000000     0.249580000000     0.818500000000     0          
O421     O      0.278500000000     0.185930000000     0.672140000000     0          
O422     O      0.299860000000     0.250420000000     0.652590000000     0          
C423     C      0.220200000000     0.123830000000     0.633320000000     0          
H424     H      0.194950000000     0.130860000000     0.647270000000     0          
C425     C      0.220400000000     0.097600000000     0.608390000000     0          
H426     H      0.195680000000     0.082060000000     0.602990000000     0          
C427     C      0.248500000000     0.073380000000     0.528820000000     0          
C428     C      0.247800000000     0.109320000000     0.517430000000     0          
H429     H      0.247370000000     0.131240000000     0.537460000000     0          
H430     H      0.299860000000     0.250420000000     0.681500000000     0          
O431     O      0.778500000000     0.685930000000     0.172140000000     0          
O432     O      0.799860000000     0.750420000000     0.152590000000     0          
C433     C      0.720200000000     0.623830000000     0.133320000000     0          
H434     H      0.694950000000     0.630860000000     0.147270000000     0          
C435     C      0.720400000000     0.597600000000     0.108390000000     0          
H436     H      0.695680000000     0.582060000000     0.102990000000     0          
C437     C      0.748500000000     0.573380000000     0.028820000000     0          
C438     C      0.747800000000     0.609320000000     0.017430000000     0          
H439     H      0.747370000000     0.631240000000     0.037460000000     0          
H440     H      0.799860000000     0.750420000000     0.181500000000     0          
O441     O      0.721500000000     0.814070000000     0.672140000000     0          
O442     O      0.700140000000     0.749580000000     0.652590000000     0          
C443     C      0.779800000000     0.876170000000     0.633320000000     0          
H444     H      0.805050000000     0.869140000000     0.647270000000     0          
C445     C      0.779600000000     0.902400000000     0.608390000000     0          
H446     H      0.804320000000     0.917940000000     0.602990000000     0          
C447     C      0.751500000000     0.926620000000     0.528820000000     0          
C448     C      0.752200000000     0.890680000000     0.517430000000     0          
H449     H      0.752630000000     0.868760000000     0.537460000000     0          
H450     H      0.700140000000     0.749580000000     0.681500000000     0          
O451     O      0.221500000000     0.314070000000     0.172140000000     0          
O452     O      0.200140000000     0.249580000000     0.152590000000     0          
C453     C      0.279800000000     0.376170000000     0.133320000000     0          
H454     H      0.305050000000     0.369140000000     0.147270000000     0          
C455     C      0.279600000000     0.402400000000     0.108390000000     0          
H456     H      0.304320000000     0.417940000000     0.102990000000     0          
C457     C      0.251500000000     0.426620000000     0.028820000000     0          
C458     C      0.252200000000     0.390680000000     0.017430000000     0          
H459     H      0.252630000000     0.368760000000     0.037460000000     0          
H460     H      0.200140000000     0.249580000000     0.181500000000     0          
O461     O      0.721500000000     0.185930000000     0.327860000000     0          
O462     O      0.700140000000     0.250420000000     0.347410000000     0          
C463     C      0.779800000000     0.123830000000     0.366680000000     0          
H464     H      0.805050000000     0.130860000000     0.352730000000     0          
C465     C      0.779600000000     0.097600000000     0.391610000000     0          
H466     H      0.804320000000     0.082060000000     0.397010000000     0          
C467     C      0.751500000000     0.073380000000     0.471180000000     0          
C468     C      0.752200000000     0.109320000000     0.482570000000     0          
H469     H      0.752630000000     0.131240000000     0.462540000000     0          
H470     H      0.700140000000     0.250420000000     0.318500000000     0          
O471     O      0.221500000000     0.685930000000     0.827860000000     0          
O472     O      0.200140000000     0.750420000000     0.847410000000     0          
C473     C      0.279800000000     0.623830000000     0.866680000000     0          
H474     H      0.305050000000     0.630860000000     0.852730000000     0          
C475     C      0.279600000000     0.597600000000     0.891610000000     0          
H476     H      0.304320000000     0.582060000000     0.897010000000     0          
C477     C      0.251500000000     0.573380000000     0.971180000000     0          
C478     C      0.252200000000     0.609320000000     0.982570000000     0          
H479     H      0.252630000000     0.631240000000     0.962540000000     0          
H480     H      0.200140000000     0.750420000000     0.818500000000     0          
O481     O      0.327860000000     0.185930000000     0.721500000000     0          
O482     O      0.347410000000     0.250420000000     0.700140000000     0          
C483     C      0.366680000000     0.123830000000     0.779800000000     0          
H484     H      0.352730000000     0.130860000000     0.805050000000     0          
C485     C      0.391610000000     0.097600000000     0.779600000000     0          
H486     H      0.397010000000     0.082060000000     0.804320000000     0          
C487     C      0.471180000000     0.073380000000     0.751500000000     0          
C488     C      0.482570000000     0.109320000000     0.752200000000     0          
H489     H      0.462540000000     0.131240000000     0.752630000000     0          
H490     H      0.318500000000     0.250420000000     0.700140000000     0          
O491     O      0.827860000000     0.685930000000     0.221500000000     0          
O492     O      0.847410000000     0.750420000000     0.200140000000     0          
C493     C      0.866680000000     0.623830000000     0.279800000000     0          
H494     H      0.852730000000     0.630860000000     0.305050000000     0          
C495     C      0.891610000000     0.597600000000     0.279600000000     0          
H496     H      0.897010000000     0.582060000000     0.304320000000     0          
C497     C      0.971180000000     0.573380000000     0.251500000000     0          
C498     C      0.982570000000     0.609320000000     0.252200000000     0          
H499     H      0.962540000000     0.631240000000     0.252630000000     0          
H500     H      0.818500000000     0.750420000000     0.200140000000     0          
O501     O      0.672140000000     0.814070000000     0.721500000000     0          
O502     O      0.652590000000     0.749580000000     0.700140000000     0          
C503     C      0.633320000000     0.876170000000     0.779800000000     0          
H504     H      0.647270000000     0.869140000000     0.805050000000     0          
C505     C      0.608390000000     0.902400000000     0.779600000000     0          
H506     H      0.602990000000     0.917940000000     0.804320000000     0          
C507     C      0.528820000000     0.926620000000     0.751500000000     0          
C508     C      0.517430000000     0.890680000000     0.752200000000     0          
H509     H      0.537460000000     0.868760000000     0.752630000000     0          
H510     H      0.681500000000     0.749580000000     0.700140000000     0          
O511     O      0.172140000000     0.314070000000     0.221500000000     0          
O512     O      0.152590000000     0.249580000000     0.200140000000     0          
C513     C      0.133320000000     0.376170000000     0.279800000000     0          
H514     H      0.147270000000     0.369140000000     0.305050000000     0          
C515     C      0.108390000000     0.402400000000     0.279600000000     0          
H516     H      0.102990000000     0.417940000000     0.304320000000     0          
C517     C      0.028820000000     0.426620000000     0.251500000000     0          
C518     C      0.017430000000     0.390680000000     0.252200000000     0          
H519     H      0.037460000000     0.368760000000     0.252630000000     0          
H520     H      0.181500000000     0.249580000000     0.200140000000     0          
O521     O      0.672140000000     0.185930000000     0.278500000000     0          
O522     O      0.652590000000     0.250420000000     0.299860000000     0          
C523     C      0.633320000000     0.123830000000     0.220200000000     0          
H524     H      0.647270000000     0.130860000000     0.194950000000     0          
C525     C      0.608390000000     0.097600000000     0.220400000000     0          
H526     H      0.602990000000     0.082060000000     0.195680000000     0          
C527     C      0.528820000000     0.073380000000     0.248500000000     0          
C528     C      0.517430000000     0.109320000000     0.247800000000     0          
H529     H      0.537460000000     0.131240000000     0.247370000000     0          
H530     H      0.681500000000     0.250420000000     0.299860000000     0          
O531     O      0.172140000000     0.685930000000     0.778500000000     0          
O532     O      0.152590000000     0.750420000000     0.799860000000     0          
C533     C      0.133320000000     0.623830000000     0.720200000000     0          
H534     H      0.147270000000     0.630860000000     0.694950000000     0          
C535     C      0.108390000000     0.597600000000     0.720400000000     0          
H536     H      0.102990000000     0.582060000000     0.695680000000     0          
C537     C      0.028820000000     0.573380000000     0.748500000000     0          
C538     C      0.017430000000     0.609320000000     0.747800000000     0          
H539     H      0.037460000000     0.631240000000     0.747370000000     0          
H540     H      0.181500000000     0.750420000000     0.799860000000     0          
O541     O      0.327860000000     0.814070000000     0.278500000000     0          
O542     O      0.347410000000     0.749580000000     0.299860000000     0          
C543     C      0.366680000000     0.876170000000     0.220200000000     0          
H544     H      0.352730000000     0.869140000000     0.194950000000     0          
C545     C      0.391610000000     0.902400000000     0.220400000000     0          
H546     H      0.397010000000     0.917940000000     0.195680000000     0          
C547     C      0.471180000000     0.926620000000     0.248500000000     0          
C548     C      0.482570000000     0.890680000000     0.247800000000     0          
H549     H      0.462540000000     0.868760000000     0.247370000000     0          
H550     H      0.318500000000     0.749580000000     0.299860000000     0          
O551     O      0.827860000000     0.314070000000     0.778500000000     0          
O552     O      0.847410000000     0.249580000000     0.799860000000     0          
C553     C      0.866680000000     0.376170000000     0.720200000000     0          
H554     H      0.852730000000     0.369140000000     0.694950000000     0          
C555     C      0.891610000000     0.402400000000     0.720400000000     0          
H556     H      0.897010000000     0.417940000000     0.695680000000     0          
C557     C      0.971180000000     0.426620000000     0.748500000000     0          
C558     C      0.982570000000     0.390680000000     0.747800000000     0          
H559     H      0.962540000000     0.368760000000     0.747370000000     0          
H560     H      0.818500000000     0.249580000000     0.799860000000     0          
O561     O      0.721500000000     0.327860000000     0.185930000000     0          
O562     O      0.700140000000     0.347410000000     0.250420000000     0          
C563     C      0.779800000000     0.366680000000     0.123830000000     0          
H564     H      0.805050000000     0.352730000000     0.130860000000     0          
C565     C      0.779600000000     0.391610000000     0.097600000000     0          
H566     H      0.804320000000     0.397010000000     0.082060000000     0          
C567     C      0.751500000000     0.471180000000     0.073380000000     0          
C568     C      0.752200000000     0.482570000000     0.109320000000     0          
H569     H      0.752630000000     0.462540000000     0.131240000000     0          
H570     H      0.700140000000     0.318500000000     0.250420000000     0          
O571     O      0.221500000000     0.827860000000     0.685930000000     0          
O572     O      0.200140000000     0.847410000000     0.750420000000     0          
C573     C      0.279800000000     0.866680000000     0.623830000000     0          
H574     H      0.305050000000     0.852730000000     0.630860000000     0          
C575     C      0.279600000000     0.891610000000     0.597600000000     0          
H576     H      0.304320000000     0.897010000000     0.582060000000     0          
C577     C      0.251500000000     0.971180000000     0.573380000000     0          
C578     C      0.252200000000     0.982570000000     0.609320000000     0          
H579     H      0.252630000000     0.962540000000     0.631240000000     0          
H580     H      0.200140000000     0.818500000000     0.750420000000     0          
O581     O      0.721500000000     0.672140000000     0.814070000000     0          
O582     O      0.700140000000     0.652590000000     0.749580000000     0          
C583     C      0.779800000000     0.633320000000     0.876170000000     0          
H584     H      0.805050000000     0.647270000000     0.869140000000     0          
C585     C      0.779600000000     0.608390000000     0.902400000000     0          
H586     H      0.804320000000     0.602990000000     0.917940000000     0          
C587     C      0.751500000000     0.528820000000     0.926620000000     0          
C588     C      0.752200000000     0.517430000000     0.890680000000     0          
H589     H      0.752630000000     0.537460000000     0.868760000000     0          
H590     H      0.700140000000     0.681500000000     0.749580000000     0          
O591     O      0.221500000000     0.172140000000     0.314070000000     0          
O592     O      0.200140000000     0.152590000000     0.249580000000     0          
C593     C      0.279800000000     0.133320000000     0.376170000000     0          
H594     H      0.305050000000     0.147270000000     0.369140000000     0          
C595     C      0.279600000000     0.108390000000     0.402400000000     0          
H596     H      0.304320000000     0.102990000000     0.417940000000     0          
C597     C      0.251500000000     0.028820000000     0.426620000000     0          
C598     C      0.252200000000     0.017430000000     0.390680000000     0          
H599     H      0.252630000000     0.037460000000     0.368760000000     0          
H600     H      0.200140000000     0.181500000000     0.249580000000     0          
O601     O      0.278500000000     0.672140000000     0.185930000000     0          
O602     O      0.299860000000     0.652590000000     0.250420000000     0          
C603     C      0.220200000000     0.633320000000     0.123830000000     0          
H604     H      0.194950000000     0.647270000000     0.130860000000     0          
C605     C      0.220400000000     0.608390000000     0.097600000000     0          
H606     H      0.195680000000     0.602990000000     0.082060000000     0          
C607     C      0.248500000000     0.528820000000     0.073380000000     0          
C608     C      0.247800000000     0.517430000000     0.109320000000     0          
H609     H      0.247370000000     0.537460000000     0.131240000000     0          
H610     H      0.299860000000     0.681500000000     0.250420000000     0          
O611     O      0.778500000000     0.172140000000     0.685930000000     0          
O612     O      0.799860000000     0.152590000000     0.750420000000     0          
C613     C      0.720200000000     0.133320000000     0.623830000000     0          
H614     H      0.694950000000     0.147270000000     0.630860000000     0          
C615     C      0.720400000000     0.108390000000     0.597600000000     0          
H616     H      0.695680000000     0.102990000000     0.582060000000     0          
C617     C      0.748500000000     0.028820000000     0.573380000000     0          
C618     C      0.747800000000     0.017430000000     0.609320000000     0          
H619     H      0.747370000000     0.037460000000     0.631240000000     0          
H620     H      0.799860000000     0.181500000000     0.750420000000     0          
O621     O      0.278500000000     0.327860000000     0.814070000000     0          
O622     O      0.299860000000     0.347410000000     0.749580000000     0          
C623     C      0.220200000000     0.366680000000     0.876170000000     0          
H624     H      0.194950000000     0.352730000000     0.869140000000     0          
C625     C      0.220400000000     0.391610000000     0.902400000000     0          
H626     H      0.195680000000     0.397010000000     0.917940000000     0          
C627     C      0.248500000000     0.471180000000     0.926620000000     0          
C628     C      0.247800000000     0.482570000000     0.890680000000     0          
H629     H      0.247370000000     0.462540000000     0.868760000000     0          
H630     H      0.299860000000     0.318500000000     0.749580000000     0          
O631     O      0.778500000000     0.827860000000     0.314070000000     0          
O632     O      0.799860000000     0.847410000000     0.249580000000     0          
C633     C      0.720200000000     0.866680000000     0.376170000000     0          
H634     H      0.694950000000     0.852730000000     0.369140000000     0          
C635     C      0.720400000000     0.891610000000     0.402400000000     0          
H636     H      0.695680000000     0.897010000000     0.417940000000     0          
C637     C      0.748500000000     0.971180000000     0.426620000000     0          
C638     C      0.747800000000     0.982570000000     0.390680000000     0          
H639     H      0.747370000000     0.962540000000     0.368760000000     0          
H640     H      0.799860000000     0.818500000000     0.249580000000     0          
O641     O      0.185930000000     0.721500000000     0.327860000000     0          
O642     O      0.250420000000     0.700140000000     0.347410000000     0          
C643     C      0.123830000000     0.779800000000     0.366680000000     0          
H644     H      0.130860000000     0.805050000000     0.352730000000     0          
C645     C      0.097600000000     0.779600000000     0.391610000000     0          
H646     H      0.082060000000     0.804320000000     0.397010000000     0          
C647     C      0.073380000000     0.751500000000     0.471180000000     0          
C648     C      0.109320000000     0.752200000000     0.482570000000     0          
H649     H      0.131240000000     0.752630000000     0.462540000000     0          
H650     H      0.250420000000     0.700140000000     0.318500000000     0          
O651     O      0.685930000000     0.221500000000     0.827860000000     0          
O652     O      0.750420000000     0.200140000000     0.847410000000     0          
C653     C      0.623830000000     0.279800000000     0.866680000000     0          
H654     H      0.630860000000     0.305050000000     0.852730000000     0          
C655     C      0.597600000000     0.279600000000     0.891610000000     0          
H656     H      0.582060000000     0.304320000000     0.897010000000     0          
C657     C      0.573380000000     0.251500000000     0.971180000000     0          
C658     C      0.609320000000     0.252200000000     0.982570000000     0          
H659     H      0.631240000000     0.252630000000     0.962540000000     0          
H660     H      0.750420000000     0.200140000000     0.818500000000     0          
O661     O      0.814070000000     0.721500000000     0.672140000000     0          
O662     O      0.749580000000     0.700140000000     0.652590000000     0          
C663     C      0.876170000000     0.779800000000     0.633320000000     0          
H664     H      0.869140000000     0.805050000000     0.647270000000     0          
C665     C      0.902400000000     0.779600000000     0.608390000000     0          
H666     H      0.917940000000     0.804320000000     0.602990000000     0          
C667     C      0.926620000000     0.751500000000     0.528820000000     0          
C668     C      0.890680000000     0.752200000000     0.517430000000     0          
H669     H      0.868760000000     0.752630000000     0.537460000000     0          
H670     H      0.749580000000     0.700140000000     0.681500000000     0          
O671     O      0.314070000000     0.221500000000     0.172140000000     0          
O672     O      0.249580000000     0.200140000000     0.152590000000     0          
C673     C      0.376170000000     0.279800000000     0.133320000000     0          
H674     H      0.369140000000     0.305050000000     0.147270000000     0          
C675     C      0.402400000000     0.279600000000     0.108390000000     0          
H676     H      0.417940000000     0.304320000000     0.102990000000     0          
C677     C      0.426620000000     0.251500000000     0.028820000000     0          
C678     C      0.390680000000     0.252200000000     0.017430000000     0          
H679     H      0.368760000000     0.252630000000     0.037460000000     0          
H680     H      0.249580000000     0.200140000000     0.181500000000     0          
O681     O      0.185930000000     0.278500000000     0.672140000000     0          
O682     O      0.250420000000     0.299860000000     0.652590000000     0          
C683     C      0.123830000000     0.220200000000     0.633320000000     0          
H684     H      0.130860000000     0.194950000000     0.647270000000     0          
C685     C      0.097600000000     0.220400000000     0.608390000000     0          
H686     H      0.082060000000     0.195680000000     0.602990000000     0          
C687     C      0.073380000000     0.248500000000     0.528820000000     0          
C688     C      0.109320000000     0.247800000000     0.517430000000     0          
H689     H      0.131240000000     0.247370000000     0.537460000000     0          
H690     H      0.250420000000     0.299860000000     0.681500000000     0          
O691     O      0.685930000000     0.778500000000     0.172140000000     0          
O692     O      0.750420000000     0.799860000000     0.152590000000     0          
C693     C      0.623830000000     0.720200000000     0.133320000000     0          
H694     H      0.630860000000     0.694950000000     0.147270000000     0          
C695     C      0.597600000000     0.720400000000     0.108390000000     0          
H696     H      0.582060000000     0.695680000000     0.102990000000     0          
C697     C      0.573380000000     0.748500000000     0.028820000000     0          
C698     C      0.609320000000     0.747800000000     0.017430000000     0          
H699     H      0.631240000000     0.747370000000     0.037460000000     0          
H700     H      0.750420000000     0.799860000000     0.181500000000     0          
O701     O      0.814070000000     0.278500000000     0.327860000000     0          
O702     O      0.749580000000     0.299860000000     0.347410000000     0          
C703     C      0.876170000000     0.220200000000     0.366680000000     0          
H704     H      0.869140000000     0.194950000000     0.352730000000     0          
C705     C      0.902400000000     0.220400000000     0.391610000000     0          
H706     H      0.917940000000     0.195680000000     0.397010000000     0          
C707     C      0.926620000000     0.248500000000     0.471180000000     0          
C708     C      0.890680000000     0.247800000000     0.482570000000     0          
H709     H      0.868760000000     0.247370000000     0.462540000000     0          
H710     H      0.749580000000     0.299860000000     0.318500000000     0          
O711     O      0.314070000000     0.778500000000     0.827860000000     0          
O712     O      0.249580000000     0.799860000000     0.847410000000     0          
C713     C      0.376170000000     0.720200000000     0.866680000000     0          
H714     H      0.369140000000     0.694950000000     0.852730000000     0          
C715     C      0.402400000000     0.720400000000     0.891610000000     0          
H716     H      0.417940000000     0.695680000000     0.897010000000     0          
C717     C      0.426620000000     0.748500000000     0.971180000000     0          
C718     C      0.390680000000     0.747800000000     0.982570000000     0          
H719     H      0.368760000000     0.747370000000     0.962540000000     0          
H720     H      0.249580000000     0.799860000000     0.818500000000     0          
O721     O      0.185930000000     0.327860000000     0.278500000000     0          
O722     O      0.250420000000     0.347410000000     0.299860000000     0          
C723     C      0.123830000000     0.366680000000     0.220200000000     0          
H724     H      0.130860000000     0.352730000000     0.194950000000     0          
C725     C      0.097600000000     0.391610000000     0.220400000000     0          
H726     H      0.082060000000     0.397010000000     0.195680000000     0          
C727     C      0.073380000000     0.471180000000     0.248500000000     0          
C728     C      0.109320000000     0.482570000000     0.247800000000     0          
H729     H      0.131240000000     0.462540000000     0.247370000000     0          
H730     H      0.250420000000     0.318500000000     0.299860000000     0          
O731     O      0.685930000000     0.827860000000     0.778500000000     0          
O732     O      0.750420000000     0.847410000000     0.799860000000     0          
C733     C      0.623830000000     0.866680000000     0.720200000000     0          
H734     H      0.630860000000     0.852730000000     0.694950000000     0          
C735     C      0.597600000000     0.891610000000     0.720400000000     0          
H736     H      0.582060000000     0.897010000000     0.695680000000     0          
C737     C      0.573380000000     0.971180000000     0.748500000000     0          
C738     C      0.609320000000     0.982570000000     0.747800000000     0          
H739     H      0.631240000000     0.962540000000     0.747370000000     0          
H740     H      0.750420000000     0.818500000000     0.799860000000     0          
O741     O      0.814070000000     0.672140000000     0.278500000000     0          
O742     O      0.749580000000     0.652590000000     0.299860000000     0          
C743     C      0.876170000000     0.633320000000     0.220200000000     0          
H744     H      0.869140000000     0.647270000000     0.194950000000     0          
C745     C      0.902400000000     0.608390000000     0.220400000000     0          
H746     H      0.917940000000     0.602990000000     0.195680000000     0          
C747     C      0.926620000000     0.528820000000     0.248500000000     0          
C748     C      0.890680000000     0.517430000000     0.247800000000     0          
H749     H      0.868760000000     0.537460000000     0.247370000000     0          
H750     H      0.749580000000     0.681500000000     0.299860000000     0          
O751     O      0.314070000000     0.172140000000     0.778500000000     0          
O752     O      0.249580000000     0.152590000000     0.799860000000     0          
C753     C      0.376170000000     0.133320000000     0.720200000000     0          
H754     H      0.369140000000     0.147270000000     0.694950000000     0          
C755     C      0.402400000000     0.108390000000     0.720400000000     0          
H756     H      0.417940000000     0.102990000000     0.695680000000     0          
C757     C      0.426620000000     0.028820000000     0.748500000000     0          
C758     C      0.390680000000     0.017430000000     0.747800000000     0          
H759     H      0.368760000000     0.037460000000     0.747370000000     0          
H760     H      0.249580000000     0.181500000000     0.799860000000     0          
O761     O      0.185930000000     0.672140000000     0.721500000000     0          
O762     O      0.250420000000     0.652590000000     0.700140000000     0          
C763     C      0.123830000000     0.633320000000     0.779800000000     0          
H764     H      0.130860000000     0.647270000000     0.805050000000     0          
C765     C      0.097600000000     0.608390000000     0.779600000000     0          
H766     H      0.082060000000     0.602990000000     0.804320000000     0          
C767     C      0.073380000000     0.528820000000     0.751500000000     0          
C768     C      0.109320000000     0.517430000000     0.752200000000     0          
H769     H      0.131240000000     0.537460000000     0.752630000000     0          
H770     H      0.250420000000     0.681500000000     0.700140000000     0          
O771     O      0.685930000000     0.172140000000     0.221500000000     0          
O772     O      0.750420000000     0.152590000000     0.200140000000     0          
C773     C      0.623830000000     0.133320000000     0.279800000000     0          
H774     H      0.630860000000     0.147270000000     0.305050000000     0          
C775     C      0.597600000000     0.108390000000     0.279600000000     0          
H776     H      0.582060000000     0.102990000000     0.304320000000     0          
C777     C      0.573380000000     0.028820000000     0.251500000000     0          
C778     C      0.609320000000     0.017430000000     0.252200000000     0          
H779     H      0.631240000000     0.037460000000     0.252630000000     0          
H780     H      0.750420000000     0.181500000000     0.200140000000     0          
O781     O      0.814070000000     0.327860000000     0.721500000000     0          
O782     O      0.749580000000     0.347410000000     0.700140000000     0          
C783     C      0.876170000000     0.366680000000     0.779800000000     0          
H784     H      0.869140000000     0.352730000000     0.805050000000     0          
C785     C      0.902400000000     0.391610000000     0.779600000000     0          
H786     H      0.917940000000     0.397010000000     0.804320000000     0          
C787     C      0.926620000000     0.471180000000     0.751500000000     0          
C788     C      0.890680000000     0.482570000000     0.752200000000     0          
H789     H      0.868760000000     0.462540000000     0.752630000000     0          
H790     H      0.749580000000     0.318500000000     0.700140000000     0          
O791     O      0.314070000000     0.827860000000     0.221500000000     0          
O792     O      0.249580000000     0.847410000000     0.200140000000     0          
C793     C      0.376170000000     0.866680000000     0.279800000000     0          
H794     H      0.369140000000     0.852730000000     0.305050000000     0          
C795     C      0.402400000000     0.891610000000     0.279600000000     0          
H796     H      0.417940000000     0.897010000000     0.304320000000     0          
C797     C      0.426620000000     0.971180000000     0.251500000000     0          
C798     C      0.390680000000     0.982570000000     0.252200000000     0          
H799     H      0.368760000000     0.962540000000     0.252630000000     0          
H800     H      0.249580000000     0.818500000000     0.200140000000     0          
O801     O      0.327860000000     0.721500000000     0.814070000000     0          
O802     O      0.347410000000     0.700140000000     0.749580000000     0          
C803     C      0.366680000000     0.779800000000     0.876170000000     0          
H804     H      0.352730000000     0.805050000000     0.869140000000     0          
C805     C      0.391610000000     0.779600000000     0.902400000000     0          
H806     H      0.397010000000     0.804320000000     0.917940000000     0          
C807     C      0.471180000000     0.751500000000     0.926620000000     0          
C808     C      0.482570000000     0.752200000000     0.890680000000     0          
H809     H      0.462540000000     0.752630000000     0.868760000000     0          
H810     H      0.318500000000     0.700140000000     0.749580000000     0          
O811     O      0.827860000000     0.221500000000     0.314070000000     0          
O812     O      0.847410000000     0.200140000000     0.249580000000     0          
C813     C      0.866680000000     0.279800000000     0.376170000000     0          
H814     H      0.852730000000     0.305050000000     0.369140000000     0          
C815     C      0.891610000000     0.279600000000     0.402400000000     0          
H816     H      0.897010000000     0.304320000000     0.417940000000     0          
C817     C      0.971180000000     0.251500000000     0.426620000000     0          
C818     C      0.982570000000     0.252200000000     0.390680000000     0          
H819     H      0.962540000000     0.252630000000     0.368760000000     0          
H820     H      0.818500000000     0.200140000000     0.249580000000     0          
O821     O      0.672140000000     0.721500000000     0.185930000000     0          
O822     O      0.652590000000     0.700140000000     0.250420000000     0          
C823     C      0.633320000000     0.779800000000     0.123830000000     0          
H824     H      0.647270000000     0.805050000000     0.130860000000     0          
C825     C      0.608390000000     0.779600000000     0.097600000000     0          
H826     H      0.602990000000     0.804320000000     0.082060000000     0          
C827     C      0.528820000000     0.751500000000     0.073380000000     0          
C828     C      0.517430000000     0.752200000000     0.109320000000     0          
H829     H      0.537460000000     0.752630000000     0.131240000000     0          
H830     H      0.681500000000     0.700140000000     0.250420000000     0          
O831     O      0.172140000000     0.221500000000     0.685930000000     0          
O832     O      0.152590000000     0.200140000000     0.750420000000     0          
C833     C      0.133320000000     0.279800000000     0.623830000000     0          
H834     H      0.147270000000     0.305050000000     0.630860000000     0          
C835     C      0.108390000000     0.279600000000     0.597600000000     0          
H836     H      0.102990000000     0.304320000000     0.582060000000     0          
C837     C      0.028820000000     0.251500000000     0.573380000000     0          
C838     C      0.017430000000     0.252200000000     0.609320000000     0          
H839     H      0.037460000000     0.252630000000     0.631240000000     0          
H840     H      0.181500000000     0.200140000000     0.750420000000     0          
O841     O      0.672140000000     0.278500000000     0.814070000000     0          
O842     O      0.652590000000     0.299860000000     0.749580000000     0          
C843     C      0.633320000000     0.220200000000     0.876170000000     0          
H844     H      0.647270000000     0.194950000000     0.869140000000     0          
C845     C      0.608390000000     0.220400000000     0.902400000000     0          
H846     H      0.602990000000     0.195680000000     0.917940000000     0          
C847     C      0.528820000000     0.248500000000     0.926620000000     0          
C848     C      0.517430000000     0.247800000000     0.890680000000     0          
H849     H      0.537460000000     0.247370000000     0.868760000000     0          
H850     H      0.681500000000     0.299860000000     0.749580000000     0          
O851     O      0.172140000000     0.778500000000     0.314070000000     0          
O852     O      0.152590000000     0.799860000000     0.249580000000     0          
C853     C      0.133320000000     0.720200000000     0.376170000000     0          
H854     H      0.147270000000     0.694950000000     0.369140000000     0          
C855     C      0.108390000000     0.720400000000     0.402400000000     0          
H856     H      0.102990000000     0.695680000000     0.417940000000     0          
C857     C      0.028820000000     0.748500000000     0.426620000000     0          
C858     C      0.017430000000     0.747800000000     0.390680000000     0          
H859     H      0.037460000000     0.747370000000     0.368760000000     0          
H860     H      0.181500000000     0.799860000000     0.249580000000     0          
O861     O      0.327860000000     0.278500000000     0.185930000000     0          
O862     O      0.347410000000     0.299860000000     0.250420000000     0          
C863     C      0.366680000000     0.220200000000     0.123830000000     0          
H864     H      0.352730000000     0.194950000000     0.130860000000     0          
C865     C      0.391610000000     0.220400000000     0.097600000000     0          
H866     H      0.397010000000     0.195680000000     0.082060000000     0          
C867     C      0.471180000000     0.248500000000     0.073380000000     0          
C868     C      0.482570000000     0.247800000000     0.109320000000     0          
H869     H      0.462540000000     0.247370000000     0.131240000000     0          
H870     H      0.318500000000     0.299860000000     0.250420000000     0          
O871     O      0.827860000000     0.778500000000     0.685930000000     0          
O872     O      0.847410000000     0.799860000000     0.750420000000     0          
C873     C      0.866680000000     0.720200000000     0.623830000000     0          
H874     H      0.852730000000     0.694950000000     0.630860000000     0          
C875     C      0.891610000000     0.720400000000     0.597600000000     0          
H876     H      0.897010000000     0.695680000000     0.582060000000     0          
C877     C      0.971180000000     0.748500000000     0.573380000000     0          
C878     C      0.982570000000     0.747800000000     0.609320000000     0          
H879     H      0.962540000000     0.747370000000     0.631240000000     0          
H880     H      0.818500000000     0.799860000000     0.750420000000     0          
O881     O      0.721500000000     0.185930000000     0.672140000000     0          
O882     O      0.700140000000     0.250420000000     0.652590000000     0          
C883     C      0.779800000000     0.123830000000     0.633320000000     0          
H884     H      0.805050000000     0.130860000000     0.647270000000     0          
C885     C      0.779600000000     0.097600000000     0.608390000000     0          
H886     H      0.804320000000     0.082060000000     0.602990000000     0          
C887     C      0.751500000000     0.073380000000     0.528820000000     0          
C888     C      0.752200000000     0.109320000000     0.517430000000     0          
H889     H      0.752630000000     0.131240000000     0.537460000000     0          
H890     H      0.700140000000     0.250420000000     0.681500000000     0          
O891     O      0.221500000000     0.685930000000     0.172140000000     0          
O892     O      0.200140000000     0.750420000000     0.152590000000     0          
C893     C      0.279800000000     0.623830000000     0.133320000000     0          
H894     H      0.305050000000     0.630860000000     0.147270000000     0          
C895     C      0.279600000000     0.597600000000     0.108390000000     0          
H896     H      0.304320000000     0.582060000000     0.102990000000     0          
C897     C      0.251500000000     0.573380000000     0.028820000000     0          
C898     C      0.252200000000     0.609320000000     0.017430000000     0          
H899     H      0.252630000000     0.631240000000     0.037460000000     0          
H900     H      0.200140000000     0.750420000000     0.181500000000     0          
O901     O      0.721500000000     0.814070000000     0.327860000000     0          
O902     O      0.700140000000     0.749580000000     0.347410000000     0          
C903     C      0.779800000000     0.876170000000     0.366680000000     0          
H904     H      0.805050000000     0.869140000000     0.352730000000     0          
C905     C      0.779600000000     0.902400000000     0.391610000000     0          
H906     H      0.804320000000     0.917940000000     0.397010000000     0          
C907     C      0.751500000000     0.926620000000     0.471180000000     0          
C908     C      0.752200000000     0.890680000000     0.482570000000     0          
H909     H      0.752630000000     0.868760000000     0.462540000000     0          
H910     H      0.700140000000     0.749580000000     0.318500000000     0          
O911     O      0.221500000000     0.314070000000     0.827860000000     0          
O912     O      0.200140000000     0.249580000000     0.847410000000     0          
C913     C      0.279800000000     0.376170000000     0.866680000000     0          
H914     H      0.305050000000     0.369140000000     0.852730000000     0          
C915     C      0.279600000000     0.402400000000     0.891610000000     0          
H916     H      0.304320000000     0.417940000000     0.897010000000     0          
C917     C      0.251500000000     0.426620000000     0.971180000000     0          
C918     C      0.252200000000     0.390680000000     0.982570000000     0          
H919     H      0.252630000000     0.368760000000     0.962540000000     0          
H920     H      0.200140000000     0.249580000000     0.818500000000     0          
O921     O      0.278500000000     0.185930000000     0.327860000000     0          
O922     O      0.299860000000     0.250420000000     0.347410000000     0          
C923     C      0.220200000000     0.123830000000     0.366680000000     0          
H924     H      0.194950000000     0.130860000000     0.352730000000     0          
C925     C      0.220400000000     0.097600000000     0.391610000000     0          
H926     H      0.195680000000     0.082060000000     0.397010000000     0          
C927     C      0.248500000000     0.073380000000     0.471180000000     0          
C928     C      0.247800000000     0.109320000000     0.482570000000     0          
H929     H      0.247370000000     0.131240000000     0.462540000000     0          
H930     H      0.299860000000     0.250420000000     0.318500000000     0          
O931     O      0.778500000000     0.685930000000     0.827860000000     0          
O932     O      0.799860000000     0.750420000000     0.847410000000     0          
C933     C      0.720200000000     0.623830000000     0.866680000000     0          
H934     H      0.694950000000     0.630860000000     0.852730000000     0          
C935     C      0.720400000000     0.597600000000     0.891610000000     0          
H936     H      0.695680000000     0.582060000000     0.897010000000     0          
C937     C      0.748500000000     0.573380000000     0.971180000000     0          
C938     C      0.747800000000     0.609320000000     0.982570000000     0          
H939     H      0.747370000000     0.631240000000     0.962540000000     0          
H940     H      0.799860000000     0.750420000000     0.818500000000     0          
O941     O      0.278500000000     0.814070000000     0.672140000000     0          
O942     O      0.299860000000     0.749580000000     0.652590000000     0          
C943     C      0.220200000000     0.876170000000     0.633320000000     0          
H944     H      0.194950000000     0.869140000000     0.647270000000     0          
C945     C      0.220400000000     0.902400000000     0.608390000000     0          
H946     H      0.195680000000     0.917940000000     0.602990000000     0          
C947     C      0.248500000000     0.926620000000     0.528820000000     0          
C948     C      0.247800000000     0.890680000000     0.517430000000     0          
H949     H      0.247370000000     0.868760000000     0.537460000000     0          
H950     H      0.299860000000     0.749580000000     0.681500000000     0          
O951     O      0.778500000000     0.314070000000     0.172140000000     0          
O952     O      0.799860000000     0.249580000000     0.152590000000     0          
C953     C      0.720200000000     0.376170000000     0.133320000000     0          
H954     H      0.694950000000     0.369140000000     0.147270000000     0          
C955     C      0.720400000000     0.402400000000     0.108390000000     0          
H956     H      0.695680000000     0.417940000000     0.102990000000     0          
C957     C      0.748500000000     0.426620000000     0.028820000000     0          
C958     C      0.747800000000     0.390680000000     0.017430000000     0          
H959     H      0.747370000000     0.368760000000     0.037460000000     0          
H960     H      0.799860000000     0.249580000000     0.181500000000     0          
Ir961    Ir     0.500000000000     0.000000000000     0.250000000000     0          
Ir962    Ir     0.500000000000     0.000000000000     0.750000000000     0          
Ir963    Ir     0.000000000000     0.500000000000     0.250000000000     0          
Ir964    Ir     0.250000000000     0.500000000000     0.000000000000     0          
Ir965    Ir     0.750000000000     0.500000000000     0.000000000000     0          
Ir966    Ir     0.250000000000     0.000000000000     0.500000000000     0          
Ir967    Ir     0.000000000000     0.250000000000     0.500000000000     0          
Ir968    Ir     0.000000000000     0.750000000000     0.500000000000     0          
Ir969    Ir     0.000000000000     0.500000000000     0.750000000000     0          
Ir970    Ir     0.500000000000     0.250000000000     0.000000000000     0          
Ir971    Ir     0.500000000000     0.750000000000     0.000000000000     0          
Ir972    Ir     0.750000000000     0.000000000000     0.500000000000     0          
Zr973    Zr     0.706940000000     0.771360000000     0.293060000000     0          
O974     O      0.742720000000     0.807800000000     0.257280000000     0          
Zr975    Zr     0.206940000000     0.271360000000     0.793060000000     0          
O976     O      0.242720000000     0.307800000000     0.757280000000     0          
Zr977    Zr     0.293060000000     0.228640000000     0.293060000000     0          
O978     O      0.257280000000     0.192200000000     0.257280000000     0          
Zr979    Zr     0.793060000000     0.728640000000     0.793060000000     0          
O980     O      0.757280000000     0.692200000000     0.757280000000     0          
Zr981    Zr     0.293060000000     0.771360000000     0.706940000000     0          
O982     O      0.257280000000     0.807800000000     0.742720000000     0          
Zr983    Zr     0.793060000000     0.271360000000     0.206940000000     0          
O984     O      0.757280000000     0.307800000000     0.242720000000     0          
Zr985    Zr     0.706940000000     0.228640000000     0.706940000000     0          
O986     O      0.742720000000     0.192200000000     0.742720000000     0          
Zr987    Zr     0.206940000000     0.728640000000     0.206940000000     0          
O988     O      0.242720000000     0.692200000000     0.242720000000     0          
Zr989    Zr     0.293060000000     0.706940000000     0.771360000000     0          
O990     O      0.257280000000     0.742720000000     0.807800000000     0          
Zr991    Zr     0.793060000000     0.206940000000     0.271360000000     0          
O992     O      0.757280000000     0.242720000000     0.307800000000     0          
Zr993    Zr     0.293060000000     0.293060000000     0.228640000000     0          
O994     O      0.257280000000     0.257280000000     0.192200000000     0          
Zr995    Zr     0.793060000000     0.793060000000     0.728640000000     0          
O996     O      0.757280000000     0.757280000000     0.692200000000     0          
Zr997    Zr     0.706940000000     0.293060000000     0.771360000000     0          
O998     O      0.742720000000     0.257280000000     0.807800000000     0          
Zr999    Zr     0.206940000000     0.793060000000     0.271360000000     0          
O1000    O      0.242720000000     0.757280000000     0.307800000000     0          
Zr1001   Zr     0.706940000000     0.706940000000     0.228640000000     0          
O1002    O      0.742720000000     0.742720000000     0.192200000000     0          
Zr1003   Zr     0.206940000000     0.206940000000     0.728640000000     0          
O1004    O      0.242720000000     0.242720000000     0.692200000000     0          
Zr1005   Zr     0.771360000000     0.293060000000     0.706940000000     0          
O1006    O      0.807800000000     0.257280000000     0.742720000000     0          
Zr1007   Zr     0.271360000000     0.793060000000     0.206940000000     0          
O1008    O      0.307800000000     0.757280000000     0.242720000000     0          
Zr1009   Zr     0.228640000000     0.293060000000     0.293060000000     0          
O1010    O      0.192200000000     0.257280000000     0.257280000000     0          
Zr1011   Zr     0.728640000000     0.793060000000     0.793060000000     0          
O1012    O      0.692200000000     0.757280000000     0.757280000000     0          
Zr1013   Zr     0.771360000000     0.706940000000     0.293060000000     0          
O1014    O      0.807800000000     0.742720000000     0.257280000000     0          
Zr1015   Zr     0.271360000000     0.206940000000     0.793060000000     0          
O1016    O      0.307800000000     0.242720000000     0.757280000000     0          
Zr1017   Zr     0.228640000000     0.706940000000     0.706940000000     0          
O1018    O      0.192200000000     0.742720000000     0.742720000000     0          
Zr1019   Zr     0.728640000000     0.206940000000     0.206940000000     0          
O1020    O      0.692200000000     0.242720000000     0.242720000000     0          
Zr1021   Zr     0.771360000000     0.706940000000     0.706940000000     0          
O1022    O      0.807800000000     0.742720000000     0.742720000000     0          
Zr1023   Zr     0.271360000000     0.206940000000     0.206940000000     0          
O1024    O      0.307800000000     0.242720000000     0.242720000000     0          
Zr1025   Zr     0.228640000000     0.293060000000     0.706940000000     0          
O1026    O      0.192200000000     0.257280000000     0.742720000000     0          
Zr1027   Zr     0.728640000000     0.793060000000     0.206940000000     0          
O1028    O      0.692200000000     0.757280000000     0.242720000000     0          
Zr1029   Zr     0.771360000000     0.293060000000     0.293060000000     0          
O1030    O      0.807800000000     0.257280000000     0.257280000000     0          
Zr1031   Zr     0.271360000000     0.793060000000     0.793060000000     0          
O1032    O      0.307800000000     0.757280000000     0.757280000000     0          
Zr1033   Zr     0.228640000000     0.706940000000     0.293060000000     0          
O1034    O      0.192200000000     0.742720000000     0.257280000000     0          
Zr1035   Zr     0.728640000000     0.206940000000     0.793060000000     0          
O1036    O      0.692200000000     0.242720000000     0.757280000000     0          
Zr1037   Zr     0.706940000000     0.293060000000     0.228640000000     0          
O1038    O      0.742720000000     0.257280000000     0.192200000000     0          
Zr1039   Zr     0.206940000000     0.793060000000     0.728640000000     0          
O1040    O      0.242720000000     0.757280000000     0.692200000000     0          
Zr1041   Zr     0.293060000000     0.293060000000     0.771360000000     0          
O1042    O      0.257280000000     0.257280000000     0.807800000000     0          
Zr1043   Zr     0.793060000000     0.793060000000     0.271360000000     0          
O1044    O      0.757280000000     0.757280000000     0.307800000000     0          
Zr1045   Zr     0.293060000000     0.706940000000     0.228640000000     0          
O1046    O      0.257280000000     0.742720000000     0.192200000000     0          
Zr1047   Zr     0.793060000000     0.206940000000     0.728640000000     0          
O1048    O      0.757280000000     0.242720000000     0.692200000000     0          
Zr1049   Zr     0.706940000000     0.706940000000     0.771360000000     0          
O1050    O      0.742720000000     0.742720000000     0.807800000000     0          
Zr1051   Zr     0.206940000000     0.206940000000     0.271360000000     0          
O1052    O      0.242720000000     0.242720000000     0.307800000000     0          
Zr1053   Zr     0.293060000000     0.771360000000     0.293060000000     0          
O1054    O      0.257280000000     0.807800000000     0.257280000000     0          
Zr1055   Zr     0.793060000000     0.271360000000     0.793060000000     0          
O1056    O      0.757280000000     0.307800000000     0.757280000000     0          
Zr1057   Zr     0.293060000000     0.228640000000     0.706940000000     0          
O1058    O      0.257280000000     0.192200000000     0.742720000000     0          
Zr1059   Zr     0.793060000000     0.728640000000     0.206940000000     0          
O1060    O      0.757280000000     0.692200000000     0.242720000000     0          
Zr1061   Zr     0.706940000000     0.771360000000     0.706940000000     0          
O1062    O      0.742720000000     0.807800000000     0.742720000000     0          
Zr1063   Zr     0.206940000000     0.271360000000     0.206940000000     0          
O1064    O      0.242720000000     0.307800000000     0.242720000000     0          
Zr1065   Zr     0.706940000000     0.228640000000     0.293060000000     0          
O1066    O      0.742720000000     0.192200000000     0.257280000000     0          
Zr1067   Zr     0.206940000000     0.728640000000     0.793060000000     0          
O1068    O      0.242720000000     0.692200000000     0.757280000000     0          
N1069    N      0.500000000000     0.946950000000     0.249700000000     0          
N1070    N      0.000000000000     0.446950000000     0.749700000000     0          
N1071    N      0.500000000000     0.053050000000     0.249700000000     0          
N1072    N      0.000000000000     0.553050000000     0.749700000000     0          
N1073    N      0.500000000000     0.946950000000     0.750300000000     0          
N1074    N      0.000000000000     0.446950000000     0.250300000000     0          
N1075    N      0.500000000000     0.053050000000     0.750300000000     0          
N1076    N      0.000000000000     0.553050000000     0.250300000000     0          
N1077    N      0.249700000000     0.500000000000     0.946950000000     0          
N1078    N      0.749700000000     0.000000000000     0.446950000000     0          
N1079    N      0.249700000000     0.500000000000     0.053050000000     0          
N1080    N      0.749700000000     0.000000000000     0.553050000000     0          
N1081    N      0.750300000000     0.500000000000     0.946950000000     0          
N1082    N      0.250300000000     0.000000000000     0.446950000000     0          
N1083    N      0.750300000000     0.500000000000     0.053050000000     0          
N1084    N      0.250300000000     0.000000000000     0.553050000000     0          
N1085    N      0.946950000000     0.249700000000     0.500000000000     0          
N1086    N      0.446950000000     0.749700000000     0.000000000000     0          
N1087    N      0.053050000000     0.249700000000     0.500000000000     0          
N1088    N      0.553050000000     0.749700000000     0.000000000000     0          
N1089    N      0.946950000000     0.750300000000     0.500000000000     0          
N1090    N      0.446950000000     0.250300000000     0.000000000000     0          
N1091    N      0.053050000000     0.750300000000     0.500000000000     0          
N1092    N      0.553050000000     0.250300000000     0.000000000000     0          
N1093    N      0.946950000000     0.500000000000     0.750300000000     0          
N1094    N      0.446950000000     0.000000000000     0.250300000000     0          
N1095    N      0.053050000000     0.500000000000     0.750300000000     0          
N1096    N      0.553050000000     0.000000000000     0.250300000000     0          
N1097    N      0.946950000000     0.500000000000     0.249700000000     0          
N1098    N      0.446950000000     0.000000000000     0.749700000000     0          
N1099    N      0.053050000000     0.500000000000     0.249700000000     0          
N1100    N      0.553050000000     0.000000000000     0.749700000000     0          
N1101    N      0.500000000000     0.249700000000     0.053050000000     0          
N1102    N      0.000000000000     0.749700000000     0.553050000000     0          
N1103    N      0.500000000000     0.249700000000     0.946950000000     0          
N1104    N      0.000000000000     0.749700000000     0.446950000000     0          
N1105    N      0.500000000000     0.750300000000     0.053050000000     0          
N1106    N      0.000000000000     0.250300000000     0.553050000000     0          
N1107    N      0.500000000000     0.750300000000     0.946950000000     0          
N1108    N      0.000000000000     0.250300000000     0.446950000000     0          
N1109    N      0.249700000000     0.946950000000     0.500000000000     0          
N1110    N      0.749700000000     0.446950000000     0.000000000000     0          
N1111    N      0.249700000000     0.053050000000     0.500000000000     0          
N1112    N      0.749700000000     0.553050000000     0.000000000000     0          
N1113    N      0.750300000000     0.946950000000     0.500000000000     0          
N1114    N      0.250300000000     0.446950000000     0.000000000000     0          
N1115    N      0.750300000000     0.053050000000     0.500000000000     0          
N1116    N      0.250300000000     0.553050000000     0.000000000000     0          
O1117    O      0.717130000000     0.717130000000     0.282870000000     0          
O1118    O      0.217130000000     0.217130000000     0.782870000000     0          
O1119    O      0.282870000000     0.282870000000     0.282870000000     0          
O1120    O      0.782870000000     0.782870000000     0.782870000000     0          
O1121    O      0.282870000000     0.717130000000     0.717130000000     0          
O1122    O      0.782870000000     0.217130000000     0.217130000000     0          
O1123    O      0.717130000000     0.282870000000     0.717130000000     0          
O1124    O      0.217130000000     0.782870000000     0.217130000000     0          
O1125    O      0.717130000000     0.717130000000     0.717130000000     0          
O1126    O      0.217130000000     0.217130000000     0.217130000000     0          
O1127    O      0.282870000000     0.282870000000     0.717130000000     0          
O1128    O      0.782870000000     0.782870000000     0.217130000000     0          
O1129    O      0.717130000000     0.282870000000     0.282870000000     0          
O1130    O      0.217130000000     0.782870000000     0.782870000000     0          
O1131    O      0.282870000000     0.717130000000     0.282870000000     0          
O1132    O      0.782870000000     0.217130000000     0.782870000000     0          
Cl1133   Cl     0.500000000000     0.000000000000     0.189900000000     0          
Cl1134   Cl     0.000000000000     0.500000000000     0.689900000000     0          
Cl1135   Cl     0.500000000000     0.000000000000     0.810100000000     0          
Cl1136   Cl     0.000000000000     0.500000000000     0.310100000000     0          
Cl1137   Cl     0.189900000000     0.500000000000     0.000000000000     0          
Cl1138   Cl     0.689900000000     0.000000000000     0.500000000000     0          
Cl1139   Cl     0.810100000000     0.500000000000     0.000000000000     0          
Cl1140   Cl     0.310100000000     0.000000000000     0.500000000000     0          
Cl1141   Cl     0.000000000000     0.189900000000     0.500000000000     0          
Cl1142   Cl     0.500000000000     0.689900000000     0.000000000000     0          
Cl1143   Cl     0.000000000000     0.810100000000     0.500000000000     0          
Cl1144   Cl     0.500000000000     0.310100000000     0.000000000000     0          
Cl1145   Cl     0.000000000000     0.500000000000     0.810100000000     0          
Cl1146   Cl     0.500000000000     0.000000000000     0.310100000000     0          
Cl1147   Cl     0.000000000000     0.500000000000     0.189900000000     0          
Cl1148   Cl     0.500000000000     0.000000000000     0.689900000000     0          
Cl1149   Cl     0.500000000000     0.189900000000     0.000000000000     0          
Cl1150   Cl     0.000000000000     0.689900000000     0.500000000000     0          
Cl1151   Cl     0.500000000000     0.810100000000     0.000000000000     0          
Cl1152   Cl     0.000000000000     0.310100000000     0.500000000000     0          
Cl1153   Cl     0.189900000000     0.000000000000     0.500000000000     0          
Cl1154   Cl     0.689900000000     0.500000000000     0.000000000000     0          
Cl1155   Cl     0.810100000000     0.000000000000     0.500000000000     0          
Cl1156   Cl     0.310100000000     0.500000000000     0.000000000000     0          
C1157    C      0.669310000000     0.830690000000     0.250000000000     0          
C1158    C      0.641010000000     0.858990000000     0.250000000000     0          
C1159    C      0.590390000000     0.909610000000     0.250000000000     0          
C1160    C      0.562780000000     0.937220000000     0.250000000000     0          
C1161    C      0.330690000000     0.169310000000     0.250000000000     0          
C1162    C      0.358990000000     0.141010000000     0.250000000000     0          
C1163    C      0.409610000000     0.090390000000     0.250000000000     0          
C1164    C      0.437220000000     0.062780000000     0.250000000000     0          
C1165    C      0.330690000000     0.830690000000     0.750000000000     0          
C1166    C      0.358990000000     0.858990000000     0.750000000000     0          
C1167    C      0.409610000000     0.909610000000     0.750000000000     0          
C1168    C      0.437220000000     0.937220000000     0.750000000000     0          
C1169    C      0.669310000000     0.169310000000     0.750000000000     0          
C1170    C      0.641010000000     0.141010000000     0.750000000000     0          
C1171    C      0.590390000000     0.090390000000     0.750000000000     0          
C1172    C      0.562780000000     0.062780000000     0.750000000000     0          
C1173    C      0.250000000000     0.669310000000     0.830690000000     0          
C1174    C      0.250000000000     0.641010000000     0.858990000000     0          
C1175    C      0.250000000000     0.590390000000     0.909610000000     0          
C1176    C      0.250000000000     0.562780000000     0.937220000000     0          
C1177    C      0.250000000000     0.330690000000     0.169310000000     0          
C1178    C      0.250000000000     0.358990000000     0.141010000000     0          
C1179    C      0.250000000000     0.409610000000     0.090390000000     0          
C1180    C      0.250000000000     0.437220000000     0.062780000000     0          
C1181    C      0.750000000000     0.330690000000     0.830690000000     0          
C1182    C      0.750000000000     0.358990000000     0.858990000000     0          
C1183    C      0.750000000000     0.409610000000     0.909610000000     0          
C1184    C      0.750000000000     0.437220000000     0.937220000000     0          
C1185    C      0.750000000000     0.669310000000     0.169310000000     0          
C1186    C      0.750000000000     0.641010000000     0.141010000000     0          
C1187    C      0.750000000000     0.590390000000     0.090390000000     0          
C1188    C      0.750000000000     0.562780000000     0.062780000000     0          
C1189    C      0.830690000000     0.250000000000     0.669310000000     0          
C1190    C      0.858990000000     0.250000000000     0.641010000000     0          
C1191    C      0.909610000000     0.250000000000     0.590390000000     0          
C1192    C      0.937220000000     0.250000000000     0.562780000000     0          
C1193    C      0.169310000000     0.250000000000     0.330690000000     0          
C1194    C      0.141010000000     0.250000000000     0.358990000000     0          
C1195    C      0.090390000000     0.250000000000     0.409610000000     0          
C1196    C      0.062780000000     0.250000000000     0.437220000000     0          
C1197    C      0.830690000000     0.750000000000     0.330690000000     0          
C1198    C      0.858990000000     0.750000000000     0.358990000000     0          
C1199    C      0.909610000000     0.750000000000     0.409610000000     0          
C1200    C      0.937220000000     0.750000000000     0.437220000000     0          
C1201    C      0.169310000000     0.750000000000     0.669310000000     0          
C1202    C      0.141010000000     0.750000000000     0.641010000000     0          
C1203    C      0.090390000000     0.750000000000     0.590390000000     0          
C1204    C      0.062780000000     0.750000000000     0.562780000000     0          
C1205    C      0.830690000000     0.669310000000     0.750000000000     0          
C1206    C      0.858990000000     0.641010000000     0.750000000000     0          
C1207    C      0.909610000000     0.590390000000     0.750000000000     0          
C1208    C      0.937220000000     0.562780000000     0.750000000000     0          
C1209    C      0.169310000000     0.330690000000     0.750000000000     0          
C1210    C      0.141010000000     0.358990000000     0.750000000000     0          
C1211    C      0.090390000000     0.409610000000     0.750000000000     0          
C1212    C      0.062780000000     0.437220000000     0.750000000000     0          
C1213    C      0.830690000000     0.330690000000     0.250000000000     0          
C1214    C      0.858990000000     0.358990000000     0.250000000000     0          
C1215    C      0.909610000000     0.409610000000     0.250000000000     0          
C1216    C      0.937220000000     0.437220000000     0.250000000000     0          
C1217    C      0.169310000000     0.669310000000     0.250000000000     0          
C1218    C      0.141010000000     0.641010000000     0.250000000000     0          
C1219    C      0.090390000000     0.590390000000     0.250000000000     0          
C1220    C      0.062780000000     0.562780000000     0.250000000000     0          
C1221    C      0.669310000000     0.250000000000     0.169310000000     0          
C1222    C      0.641010000000     0.250000000000     0.141010000000     0          
C1223    C      0.590390000000     0.250000000000     0.090390000000     0          
C1224    C      0.562780000000     0.250000000000     0.062780000000     0          
C1225    C      0.330690000000     0.250000000000     0.830690000000     0          
C1226    C      0.358990000000     0.250000000000     0.858990000000     0          
C1227    C      0.409610000000     0.250000000000     0.909610000000     0          
C1228    C      0.437220000000     0.250000000000     0.937220000000     0          
C1229    C      0.330690000000     0.750000000000     0.169310000000     0          
C1230    C      0.358990000000     0.750000000000     0.141010000000     0          
C1231    C      0.409610000000     0.750000000000     0.090390000000     0          
C1232    C      0.437220000000     0.750000000000     0.062780000000     0          
C1233    C      0.669310000000     0.750000000000     0.830690000000     0          
C1234    C      0.641010000000     0.750000000000     0.858990000000     0          
C1235    C      0.590390000000     0.750000000000     0.909610000000     0          
C1236    C      0.562780000000     0.750000000000     0.937220000000     0          
C1237    C      0.250000000000     0.830690000000     0.330690000000     0          
C1238    C      0.250000000000     0.858990000000     0.358990000000     0          
C1239    C      0.250000000000     0.909610000000     0.409610000000     0          
C1240    C      0.250000000000     0.937220000000     0.437220000000     0          
C1241    C      0.250000000000     0.169310000000     0.669310000000     0          
C1242    C      0.250000000000     0.141010000000     0.641010000000     0          
C1243    C      0.250000000000     0.090390000000     0.590390000000     0          
C1244    C      0.250000000000     0.062780000000     0.562780000000     0          
C1245    C      0.750000000000     0.830690000000     0.669310000000     0          
C1246    C      0.750000000000     0.858990000000     0.641010000000     0          
C1247    C      0.750000000000     0.909610000000     0.590390000000     0          
C1248    C      0.750000000000     0.937220000000     0.562780000000     0          
C1249    C      0.750000000000     0.169310000000     0.330690000000     0          
C1250    C      0.750000000000     0.141010000000     0.358990000000     0          
C1251    C      0.750000000000     0.090390000000     0.409610000000     0          
C1252    C      0.750000000000     0.062780000000     0.437220000000     0          
C1253    C      0.330690000000     0.169310000000     0.750000000000     0          
C1254    C      0.358990000000     0.141010000000     0.750000000000     0          
C1255    C      0.409610000000     0.090390000000     0.750000000000     0          
C1256    C      0.437220000000     0.062780000000     0.750000000000     0          
C1257    C      0.669310000000     0.830690000000     0.750000000000     0          
C1258    C      0.641010000000     0.858990000000     0.750000000000     0          
C1259    C      0.590390000000     0.909610000000     0.750000000000     0          
C1260    C      0.562780000000     0.937220000000     0.750000000000     0          
C1261    C      0.669310000000     0.169310000000     0.250000000000     0          
C1262    C      0.641010000000     0.141010000000     0.250000000000     0          
C1263    C      0.590390000000     0.090390000000     0.250000000000     0          
C1264    C      0.562780000000     0.062780000000     0.250000000000     0          
C1265    C      0.330690000000     0.830690000000     0.250000000000     0          
C1266    C      0.358990000000     0.858990000000     0.250000000000     0          
C1267    C      0.409610000000     0.909610000000     0.250000000000     0          
C1268    C      0.437220000000     0.937220000000     0.250000000000     0          
C1269    C      0.750000000000     0.330690000000     0.169310000000     0          
C1270    C      0.750000000000     0.358990000000     0.141010000000     0          
C1271    C      0.750000000000     0.409610000000     0.090390000000     0          
C1272    C      0.750000000000     0.437220000000     0.062780000000     0          
C1273    C      0.750000000000     0.669310000000     0.830690000000     0          
C1274    C      0.750000000000     0.641010000000     0.858990000000     0          
C1275    C      0.750000000000     0.590390000000     0.909610000000     0          
C1276    C      0.750000000000     0.562780000000     0.937220000000     0          
C1277    C      0.250000000000     0.669310000000     0.169310000000     0          
C1278    C      0.250000000000     0.641010000000     0.141010000000     0          
C1279    C      0.250000000000     0.590390000000     0.090390000000     0          
C1280    C      0.250000000000     0.562780000000     0.062780000000     0          
C1281    C      0.250000000000     0.330690000000     0.830690000000     0          
C1282    C      0.250000000000     0.358990000000     0.858990000000     0          
C1283    C      0.250000000000     0.409610000000     0.909610000000     0          
C1284    C      0.250000000000     0.437220000000     0.937220000000     0          
C1285    C      0.169310000000     0.750000000000     0.330690000000     0          
C1286    C      0.141010000000     0.750000000000     0.358990000000     0          
C1287    C      0.090390000000     0.750000000000     0.409610000000     0          
C1288    C      0.062780000000     0.750000000000     0.437220000000     0          
C1289    C      0.830690000000     0.750000000000     0.669310000000     0          
C1290    C      0.858990000000     0.750000000000     0.641010000000     0          
C1291    C      0.909610000000     0.750000000000     0.590390000000     0          
C1292    C      0.937220000000     0.750000000000     0.562780000000     0          
C1293    C      0.169310000000     0.250000000000     0.669310000000     0          
C1294    C      0.141010000000     0.250000000000     0.641010000000     0          
C1295    C      0.090390000000     0.250000000000     0.590390000000     0          
C1296    C      0.062780000000     0.250000000000     0.562780000000     0          
C1297    C      0.830690000000     0.250000000000     0.330690000000     0          
C1298    C      0.858990000000     0.250000000000     0.358990000000     0          
C1299    C      0.909610000000     0.250000000000     0.409610000000     0          
C1300    C      0.937220000000     0.250000000000     0.437220000000     0          
C1301    C      0.169310000000     0.330690000000     0.250000000000     0          
C1302    C      0.141010000000     0.358990000000     0.250000000000     0          
C1303    C      0.090390000000     0.409610000000     0.250000000000     0          
C1304    C      0.062780000000     0.437220000000     0.250000000000     0          
C1305    C      0.830690000000     0.669310000000     0.250000000000     0          
C1306    C      0.858990000000     0.641010000000     0.250000000000     0          
C1307    C      0.909610000000     0.590390000000     0.250000000000     0          
C1308    C      0.937220000000     0.562780000000     0.250000000000     0          
C1309    C      0.169310000000     0.669310000000     0.750000000000     0          
C1310    C      0.141010000000     0.641010000000     0.750000000000     0          
C1311    C      0.090390000000     0.590390000000     0.750000000000     0          
C1312    C      0.062780000000     0.562780000000     0.750000000000     0          
C1313    C      0.830690000000     0.330690000000     0.750000000000     0          
C1314    C      0.858990000000     0.358990000000     0.750000000000     0          
C1315    C      0.909610000000     0.409610000000     0.750000000000     0          
C1316    C      0.937220000000     0.437220000000     0.750000000000     0          
C1317    C      0.330690000000     0.750000000000     0.830690000000     0          
C1318    C      0.358990000000     0.750000000000     0.858990000000     0          
C1319    C      0.409610000000     0.750000000000     0.909610000000     0          
C1320    C      0.437220000000     0.750000000000     0.937220000000     0          
C1321    C      0.669310000000     0.750000000000     0.169310000000     0          
C1322    C      0.641010000000     0.750000000000     0.141010000000     0          
C1323    C      0.590390000000     0.750000000000     0.090390000000     0          
C1324    C      0.562780000000     0.750000000000     0.062780000000     0          
C1325    C      0.669310000000     0.250000000000     0.830690000000     0          
C1326    C      0.641010000000     0.250000000000     0.858990000000     0          
C1327    C      0.590390000000     0.250000000000     0.909610000000     0          
C1328    C      0.562780000000     0.250000000000     0.937220000000     0          
C1329    C      0.330690000000     0.250000000000     0.169310000000     0          
C1330    C      0.358990000000     0.250000000000     0.141010000000     0          
C1331    C      0.409610000000     0.250000000000     0.090390000000     0          
C1332    C      0.437220000000     0.250000000000     0.062780000000     0          
C1333    C      0.750000000000     0.169310000000     0.669310000000     0          
C1334    C      0.750000000000     0.141010000000     0.641010000000     0          
C1335    C      0.750000000000     0.090390000000     0.590390000000     0          
C1336    C      0.750000000000     0.062780000000     0.562780000000     0          
C1337    C      0.750000000000     0.830690000000     0.330690000000     0          
C1338    C      0.750000000000     0.858990000000     0.358990000000     0          
C1339    C      0.750000000000     0.909610000000     0.409610000000     0          
C1340    C      0.750000000000     0.937220000000     0.437220000000     0          
C1341    C      0.250000000000     0.169310000000     0.330690000000     0          
C1342    C      0.250000000000     0.141010000000     0.358990000000     0          
C1343    C      0.250000000000     0.090390000000     0.409610000000     0          
C1344    C      0.250000000000     0.062780000000     0.437220000000     0          
C1345    C      0.250000000000     0.830690000000     0.669310000000     0          
C1346    C      0.250000000000     0.858990000000     0.641010000000     0          
C1347    C      0.250000000000     0.909610000000     0.590390000000     0          
C1348    C      0.250000000000     0.937220000000     0.562780000000     0          


