data_VAKMEC

_audit_creation_method RASPA-1.0
_audit_creation_date 2020-4-3
_audit_author_name 'Rocio Bueno-Perez'

_cell_length_a    34.539
_cell_length_b    34.539
_cell_length_c    20.303
_cell_angle_alpha 90
_cell_angle_beta  90
_cell_angle_gamma 90
_cell_volume      24220.3

_symmetry_cell_setting          tetragonal
_symmetry_space_group_name_Hall 'P 1'
_symmetry_space_group_name_H-M  'P 1'
_symmetry_Int_Tables_number     1

_symmetry_equiv_pos_as_xyz 'x,y,z'

loop_
_atom_site_label
_atom_site_type_symbol
_atom_site_fract_x
_atom_site_fract_y
_atom_site_fract_z
_atom_site_charge
Zr1      Zr     0.550710000000     0.541560000000     0.950570000000     0          
C1       C      0.808600000000     0.474300000000     0.461400000000     0          
H1       H      0.822400000000     0.456500000000     0.434600000000     0          
C5       C      0.617600000000     0.524400000000     0.736500000000     0          
H3       H      0.627300000000     0.538900000000     0.772700000000     0          
C6       C      0.584200000000     0.503200000000     0.743800000000     0          
C7       C      0.684000000000     0.502600000000     0.558000000000     0          
H4       H      0.697800000000     0.504600000000     0.598400000000     0          
C8       C      0.644000000000     0.502300000000     0.559100000000     0          
C9       C      0.622800000000     0.502800000000     0.623800000000     0          
C11      C      0.768400000000     0.474000000000     0.461000000000     0          
H5       H      0.754800000000     0.456100000000     0.434100000000     0          
C12      C      0.563300000000     0.502300000000     0.809700000000     0          
C13      C      0.637300000000     0.524900000000     0.676600000000     0          
H6       H      0.660200000000     0.539900000000     0.671500000000     0          
C14      C      0.569700000000     0.481800000000     0.691300000000     0          
H7       H      0.546700000000     0.467100000000     0.696600000000     0          
C17      C      0.569200000000     0.602500000000     0.065600000000     0          
C18      C      0.588700000000     0.482000000000     0.631400000000     0          
H8       H      0.578300000000     0.467900000000     0.595300000000     0          
O2       O      0.573010000000     0.528040000000     0.851300000000     0          
O3       O      0.539050000000     0.475900000000     0.817500000000     0          
O4       O      0.888060000000     0.474300000000     0.465800000000     0          
O5       O      0.535020000000     0.592900000000     0.890000000000     0          
O6       O      0.579300000000     0.593000000000     0.994300000000     0          
O7       O      0.537400000000     0.592000000000     0.120800000000     0          
O8       O      0.549900000000     0.478500000000     0.950000000000     0          
H10?     H      0.573500000000     0.468900000000     0.926700000000     0          
Zr2      Zr     0.500000000000     0.459390000000     0.898680000000     0          
C3       C      0.500000000000     0.604800000000     0.871800000000     0          
O1       O      0.500000000000     0.563800000000     0.002200000000     0          
O9       O      0.500000000000     0.521500000000     0.902900000000     0          
H9       H      0.500000000000     0.531700000000     0.856800000000     0          
C2       C      0.704500000000     0.500000000000     0.500000000000     0          
C4       C      0.624500000000     0.500000000000     0.500000000000     0          
H2       H      0.596900000000     0.500000000000     0.500000000000     0          
C10      C      0.748000000000     0.500000000000     0.500000000000     0          
C15      C      0.828400000000     0.500000000000     0.500000000000     0          
C16      C      0.871100000000     0.500000000000     0.500000000000     0          
Zr1      Zr     0.708440000000     0.300710000000     0.200570000000     0          
C1       C      0.775700000000     0.558600000000     0.711400000000     0          
H1       H      0.793500000000     0.572400000000     0.684600000000     0          
C5       C      0.725600000000     0.367600000000     0.986500000000     0          
H3       H      0.711100000000     0.377300000000     0.022700000000     0          
C6       C      0.746800000000     0.334200000000     0.993800000000     0          
C7       C      0.747400000000     0.434000000000     0.808000000000     0          
H4       H      0.745400000000     0.447800000000     0.848400000000     0          
C8       C      0.747700000000     0.394000000000     0.809100000000     0          
C9       C      0.747200000000     0.372800000000     0.873800000000     0          
C11      C      0.776000000000     0.518400000000     0.711000000000     0          
H5       H      0.793900000000     0.504800000000     0.684100000000     0          
C12      C      0.747700000000     0.313300000000     0.059700000000     0          
C13      C      0.725100000000     0.387300000000     0.926600000000     0          
H6       H      0.710100000000     0.410200000000     0.921500000000     0          
C14      C      0.768200000000     0.319700000000     0.941300000000     0          
H7       H      0.782900000000     0.296700000000     0.946600000000     0          
C17      C      0.647500000000     0.319200000000     0.315600000000     0          
C18      C      0.768000000000     0.338700000000     0.881400000000     0          
H8       H      0.782100000000     0.328300000000     0.845300000000     0          
O2       O      0.721960000000     0.323010000000     0.101300000000     0          
O3       O      0.774100000000     0.289050000000     0.067500000000     0          
O4       O      0.775700000000     0.638060000000     0.715800000000     0          
O5       O      0.657100000000     0.285020000000     0.140000000000     0          
O6       O      0.657000000000     0.329300000000     0.244300000000     0          
O7       O      0.658000000000     0.287400000000     0.370800000000     0          
O8       O      0.771500000000     0.299900000000     0.200000000000     0          
H10?     H      0.781100000000     0.323500000000     0.176700000000     0          
Zr2      Zr     0.790610000000     0.250000000000     0.148680000000     0          
C3       C      0.645200000000     0.250000000000     0.121800000000     0          
O1       O      0.686200000000     0.250000000000     0.252200000000     0          
O9       O      0.728500000000     0.250000000000     0.152900000000     0          
H9       H      0.718300000000     0.250000000000     0.106800000000     0          
C2       C      0.750000000000     0.454500000000     0.750000000000     0          
C4       C      0.750000000000     0.374500000000     0.750000000000     0          
H2       H      0.750000000000     0.346900000000     0.750000000000     0          
C10      C      0.750000000000     0.498000000000     0.750000000000     0          
C15      C      0.750000000000     0.578400000000     0.750000000000     0          
C16      C      0.750000000000     0.621100000000     0.750000000000     0          
Zr1      Zr     0.949290000000     0.458440000000     0.450570000000     0          
C1       C      0.691400000000     0.525700000000     0.961400000000     0          
H1       H      0.677600000000     0.543500000000     0.934600000000     0          
C5       C      0.882400000000     0.475600000000     0.236500000000     0          
H3       H      0.872700000000     0.461100000000     0.272700000000     0          
C6       C      0.915800000000     0.496800000000     0.243800000000     0          
C7       C      0.816000000000     0.497400000000     0.058000000000     0          
H4       H      0.802200000000     0.495400000000     0.098400000000     0          
C8       C      0.856000000000     0.497700000000     0.059100000000     0          
C9       C      0.877200000000     0.497200000000     0.123800000000     0          
C11      C      0.731600000000     0.526000000000     0.961000000000     0          
H5       H      0.745200000000     0.543900000000     0.934100000000     0          
C12      C      0.936700000000     0.497700000000     0.309700000000     0          
C13      C      0.862700000000     0.475100000000     0.176600000000     0          
H6       H      0.839800000000     0.460100000000     0.171500000000     0          
C14      C      0.930300000000     0.518200000000     0.191300000000     0          
H7       H      0.953300000000     0.532900000000     0.196600000000     0          
C17      C      0.930800000000     0.397500000000     0.565600000000     0          
C18      C      0.911300000000     0.518000000000     0.131400000000     0          
H8       H      0.921700000000     0.532100000000     0.095300000000     0          
O2       O      0.926990000000     0.471960000000     0.351300000000     0          
O3       O      0.960950000000     0.524100000000     0.317500000000     0          
O4       O      0.611940000000     0.525700000000     0.965800000000     0          
O5       O      0.964980000000     0.407100000000     0.390000000000     0          
O6       O      0.920700000000     0.407000000000     0.494300000000     0          
O7       O      0.962600000000     0.408000000000     0.620800000000     0          
O8       O      0.950100000000     0.521500000000     0.450000000000     0          
H10?     H      0.926500000000     0.531100000000     0.426700000000     0          
Zr2      Zr     0.000000000000     0.540610000000     0.398680000000     0          
C3       C      0.000000000000     0.395200000000     0.371800000000     0          
O1       O      0.000000000000     0.436200000000     0.502200000000     0          
O9       O      0.000000000000     0.478500000000     0.402900000000     0          
H9       H      0.000000000000     0.468300000000     0.356800000000     0          
C2       C      0.795500000000     0.500000000000     0.000000000000     0          
C4       C      0.875500000000     0.500000000000     0.000000000000     0          
H2       H      0.903100000000     0.500000000000     0.000000000000     0          
C10      C      0.752000000000     0.500000000000     0.000000000000     0          
C15      C      0.671600000000     0.500000000000     0.000000000000     0          
C16      C      0.628900000000     0.500000000000     0.000000000000     0          
Zr1      Zr     0.791560000000     0.699290000000     0.700570000000     0          
C1       C      0.724300000000     0.441400000000     0.211400000000     0          
H1       H      0.706500000000     0.427600000000     0.184600000000     0          
C5       C      0.774400000000     0.632400000000     0.486500000000     0          
H3       H      0.788900000000     0.622700000000     0.522700000000     0          
C6       C      0.753200000000     0.665800000000     0.493800000000     0          
C7       C      0.752600000000     0.566000000000     0.308000000000     0          
H4       H      0.754600000000     0.552200000000     0.348400000000     0          
C8       C      0.752300000000     0.606000000000     0.309100000000     0          
C9       C      0.752800000000     0.627200000000     0.373800000000     0          
C11      C      0.724000000000     0.481600000000     0.211000000000     0          
H5       H      0.706100000000     0.495200000000     0.184100000000     0          
C12      C      0.752300000000     0.686700000000     0.559700000000     0          
C13      C      0.774900000000     0.612700000000     0.426600000000     0          
H6       H      0.789900000000     0.589800000000     0.421500000000     0          
C14      C      0.731800000000     0.680300000000     0.441300000000     0          
H7       H      0.717100000000     0.703300000000     0.446600000000     0          
C17      C      0.852500000000     0.680800000000     0.815600000000     0          
C18      C      0.732000000000     0.661300000000     0.381400000000     0          
H8       H      0.717900000000     0.671700000000     0.345300000000     0          
O2       O      0.778040000000     0.676990000000     0.601300000000     0          
O3       O      0.725900000000     0.710950000000     0.567500000000     0          
O4       O      0.724300000000     0.361940000000     0.215800000000     0          
O5       O      0.842900000000     0.714980000000     0.640000000000     0          
O6       O      0.843000000000     0.670700000000     0.744300000000     0          
O7       O      0.842000000000     0.712600000000     0.870800000000     0          
O8       O      0.728500000000     0.700100000000     0.700000000000     0          
H10?     H      0.718900000000     0.676500000000     0.676700000000     0          
Zr2      Zr     0.709390000000     0.750000000000     0.648680000000     0          
C3       C      0.854800000000     0.750000000000     0.621800000000     0          
O1       O      0.813800000000     0.750000000000     0.752200000000     0          
O9       O      0.771500000000     0.750000000000     0.652900000000     0          
H9       H      0.781700000000     0.750000000000     0.606800000000     0          
C2       C      0.750000000000     0.545500000000     0.250000000000     0          
C4       C      0.750000000000     0.625500000000     0.250000000000     0          
H2       H      0.750000000000     0.653100000000     0.250000000000     0          
C10      C      0.750000000000     0.502000000000     0.250000000000     0          
C15      C      0.750000000000     0.421600000000     0.250000000000     0          
C16      C      0.750000000000     0.378900000000     0.250000000000     0          
Zr1      Zr     0.550710000000     0.458440000000     0.049430000000     0          
C1       C      0.808600000000     0.525700000000     0.538600000000     0          
H1       H      0.822400000000     0.543500000000     0.565400000000     0          
C5       C      0.617600000000     0.475600000000     0.263500000000     0          
H3       H      0.627300000000     0.461100000000     0.227300000000     0          
C6       C      0.584200000000     0.496800000000     0.256200000000     0          
C7       C      0.684000000000     0.497400000000     0.442000000000     0          
H4       H      0.697800000000     0.495400000000     0.401600000000     0          
C8       C      0.644000000000     0.497700000000     0.440900000000     0          
C9       C      0.622800000000     0.497200000000     0.376200000000     0          
C11      C      0.768400000000     0.526000000000     0.539000000000     0          
H5       H      0.754800000000     0.543900000000     0.565900000000     0          
C12      C      0.563300000000     0.497700000000     0.190300000000     0          
C13      C      0.637300000000     0.475100000000     0.323400000000     0          
H6       H      0.660200000000     0.460100000000     0.328500000000     0          
C14      C      0.569700000000     0.518200000000     0.308700000000     0          
H7       H      0.546700000000     0.532900000000     0.303400000000     0          
C17      C      0.569200000000     0.397500000000     0.934400000000     0          
C18      C      0.588700000000     0.518000000000     0.368600000000     0          
H8       H      0.578300000000     0.532100000000     0.404700000000     0          
O2       O      0.573010000000     0.471960000000     0.148700000000     0          
O3       O      0.539050000000     0.524100000000     0.182500000000     0          
O4       O      0.888060000000     0.525700000000     0.534200000000     0          
O5       O      0.535020000000     0.407100000000     0.110000000000     0          
O6       O      0.579300000000     0.407000000000     0.005700000000     0          
O7       O      0.537400000000     0.408000000000     0.879200000000     0          
O8       O      0.549900000000     0.521500000000     0.050000000000     0          
H10?     H      0.573500000000     0.531100000000     0.073300000000     0          
Zr2      Zr     0.500000000000     0.540610000000     0.101320000000     0          
C3       C      0.500000000000     0.395200000000     0.128200000000     0          
O1       O      0.500000000000     0.436200000000     0.997800000000     0          
O9       O      0.500000000000     0.478500000000     0.097100000000     0          
H9       H      0.500000000000     0.468300000000     0.143200000000     0          
Zr1      Zr     0.791560000000     0.300710000000     0.299430000000     0          
C1       C      0.724300000000     0.558600000000     0.788600000000     0          
H1       H      0.706500000000     0.572400000000     0.815400000000     0          
C5       C      0.774400000000     0.367600000000     0.513500000000     0          
H3       H      0.788900000000     0.377300000000     0.477300000000     0          
C6       C      0.753200000000     0.334200000000     0.506200000000     0          
C7       C      0.752600000000     0.434000000000     0.692000000000     0          
H4       H      0.754600000000     0.447800000000     0.651600000000     0          
C8       C      0.752300000000     0.394000000000     0.690900000000     0          
C9       C      0.752800000000     0.372800000000     0.626200000000     0          
C11      C      0.724000000000     0.518400000000     0.789000000000     0          
H5       H      0.706100000000     0.504800000000     0.815900000000     0          
C12      C      0.752300000000     0.313300000000     0.440300000000     0          
C13      C      0.774900000000     0.387300000000     0.573400000000     0          
H6       H      0.789900000000     0.410200000000     0.578500000000     0          
C14      C      0.731800000000     0.319700000000     0.558700000000     0          
H7       H      0.717100000000     0.296700000000     0.553400000000     0          
C17      C      0.852500000000     0.319200000000     0.184400000000     0          
C18      C      0.732000000000     0.338700000000     0.618600000000     0          
H8       H      0.717900000000     0.328300000000     0.654700000000     0          
O2       O      0.778040000000     0.323010000000     0.398700000000     0          
O3       O      0.725900000000     0.289050000000     0.432500000000     0          
O4       O      0.724300000000     0.638060000000     0.784200000000     0          
O5       O      0.842900000000     0.285020000000     0.360000000000     0          
O6       O      0.843000000000     0.329300000000     0.255700000000     0          
O7       O      0.842000000000     0.287400000000     0.129200000000     0          
O8       O      0.728500000000     0.299900000000     0.300000000000     0          
H10?     H      0.718900000000     0.323500000000     0.323300000000     0          
Zr2      Zr     0.709390000000     0.250000000000     0.351320000000     0          
C3       C      0.854800000000     0.250000000000     0.378200000000     0          
O1       O      0.813800000000     0.250000000000     0.247800000000     0          
O9       O      0.771500000000     0.250000000000     0.347100000000     0          
H9       H      0.781700000000     0.250000000000     0.393200000000     0          
Zr1      Zr     0.949290000000     0.541560000000     0.549430000000     0          
C1       C      0.691400000000     0.474300000000     0.038600000000     0          
H1       H      0.677600000000     0.456500000000     0.065400000000     0          
C5       C      0.882400000000     0.524400000000     0.763500000000     0          
H3       H      0.872700000000     0.538900000000     0.727300000000     0          
C6       C      0.915800000000     0.503200000000     0.756200000000     0          
C7       C      0.816000000000     0.502600000000     0.942000000000     0          
H4       H      0.802200000000     0.504600000000     0.901600000000     0          
C8       C      0.856000000000     0.502300000000     0.940900000000     0          
C9       C      0.877200000000     0.502800000000     0.876200000000     0          
C11      C      0.731600000000     0.474000000000     0.039000000000     0          
H5       H      0.745200000000     0.456100000000     0.065900000000     0          
C12      C      0.936700000000     0.502300000000     0.690300000000     0          
C13      C      0.862700000000     0.524900000000     0.823400000000     0          
H6       H      0.839800000000     0.539900000000     0.828500000000     0          
C14      C      0.930300000000     0.481800000000     0.808700000000     0          
H7       H      0.953300000000     0.467100000000     0.803400000000     0          
C17      C      0.930800000000     0.602500000000     0.434400000000     0          
C18      C      0.911300000000     0.482000000000     0.868600000000     0          
H8       H      0.921700000000     0.467900000000     0.904700000000     0          
O2       O      0.926990000000     0.528040000000     0.648700000000     0          
O3       O      0.960950000000     0.475900000000     0.682500000000     0          
O4       O      0.611940000000     0.474300000000     0.034200000000     0          
O5       O      0.964980000000     0.592900000000     0.610000000000     0          
O6       O      0.920700000000     0.593000000000     0.505700000000     0          
O7       O      0.962600000000     0.592000000000     0.379200000000     0          
O8       O      0.950100000000     0.478500000000     0.550000000000     0          
H10?     H      0.926500000000     0.468900000000     0.573300000000     0          
Zr2      Zr     0.000000000000     0.459390000000     0.601320000000     0          
C3       C      0.000000000000     0.604800000000     0.628200000000     0          
O1       O      0.000000000000     0.563800000000     0.497800000000     0          
O9       O      0.000000000000     0.521500000000     0.597100000000     0          
H9       H      0.000000000000     0.531700000000     0.643200000000     0          
Zr1      Zr     0.708440000000     0.699290000000     0.799430000000     0          
C1       C      0.775700000000     0.441400000000     0.288600000000     0          
H1       H      0.793500000000     0.427600000000     0.315400000000     0          
C5       C      0.725600000000     0.632400000000     0.013500000000     0          
H3       H      0.711100000000     0.622700000000     0.977300000000     0          
C6       C      0.746800000000     0.665800000000     0.006200000000     0          
C7       C      0.747400000000     0.566000000000     0.192000000000     0          
H4       H      0.745400000000     0.552200000000     0.151600000000     0          
C8       C      0.747700000000     0.606000000000     0.190900000000     0          
C9       C      0.747200000000     0.627200000000     0.126200000000     0          
C11      C      0.776000000000     0.481600000000     0.289000000000     0          
H5       H      0.793900000000     0.495200000000     0.315900000000     0          
C12      C      0.747700000000     0.686700000000     0.940300000000     0          
C13      C      0.725100000000     0.612700000000     0.073400000000     0          
H6       H      0.710100000000     0.589800000000     0.078500000000     0          
C14      C      0.768200000000     0.680300000000     0.058700000000     0          
H7       H      0.782900000000     0.703300000000     0.053400000000     0          
C17      C      0.647500000000     0.680800000000     0.684400000000     0          
C18      C      0.768000000000     0.661300000000     0.118600000000     0          
H8       H      0.782100000000     0.671700000000     0.154700000000     0          
O2       O      0.721960000000     0.676990000000     0.898700000000     0          
O3       O      0.774100000000     0.710950000000     0.932500000000     0          
O4       O      0.775700000000     0.361940000000     0.284200000000     0          
O5       O      0.657100000000     0.714980000000     0.860000000000     0          
O6       O      0.657000000000     0.670700000000     0.755700000000     0          
O7       O      0.658000000000     0.712600000000     0.629200000000     0          
O8       O      0.771500000000     0.700100000000     0.800000000000     0          
H10?     H      0.781100000000     0.676500000000     0.823300000000     0          
Zr2      Zr     0.790610000000     0.750000000000     0.851320000000     0          
C3       C      0.645200000000     0.750000000000     0.878200000000     0          
O1       O      0.686200000000     0.750000000000     0.747800000000     0          
O9       O      0.728500000000     0.750000000000     0.847100000000     0          
H9       H      0.718300000000     0.750000000000     0.893200000000     0          
Zr1      Zr     0.449290000000     0.458440000000     0.049430000000     0          
C1       C      0.191400000000     0.525700000000     0.538600000000     0          
H1       H      0.177600000000     0.543500000000     0.565400000000     0          
C5       C      0.382400000000     0.475600000000     0.263500000000     0          
H3       H      0.372700000000     0.461100000000     0.227300000000     0          
C6       C      0.415800000000     0.496800000000     0.256200000000     0          
C7       C      0.316000000000     0.497400000000     0.442000000000     0          
H4       H      0.302200000000     0.495400000000     0.401600000000     0          
C8       C      0.356000000000     0.497700000000     0.440900000000     0          
C9       C      0.377200000000     0.497200000000     0.376200000000     0          
C11      C      0.231600000000     0.526000000000     0.539000000000     0          
H5       H      0.245200000000     0.543900000000     0.565900000000     0          
C12      C      0.436700000000     0.497700000000     0.190300000000     0          
C13      C      0.362700000000     0.475100000000     0.323400000000     0          
H6       H      0.339800000000     0.460100000000     0.328500000000     0          
C14      C      0.430300000000     0.518200000000     0.308700000000     0          
H7       H      0.453300000000     0.532900000000     0.303400000000     0          
C17      C      0.430800000000     0.397500000000     0.934400000000     0          
C18      C      0.411300000000     0.518000000000     0.368600000000     0          
H8       H      0.421700000000     0.532100000000     0.404700000000     0          
O2       O      0.426990000000     0.471960000000     0.148700000000     0          
O3       O      0.460950000000     0.524100000000     0.182500000000     0          
O4       O      0.111940000000     0.525700000000     0.534200000000     0          
O5       O      0.464980000000     0.407100000000     0.110000000000     0          
O6       O      0.420700000000     0.407000000000     0.005700000000     0          
O7       O      0.462600000000     0.408000000000     0.879200000000     0          
O8       O      0.450100000000     0.521500000000     0.050000000000     0          
H10?     H      0.426500000000     0.531100000000     0.073300000000     0          
C2       C      0.295500000000     0.500000000000     0.500000000000     0          
C4       C      0.375500000000     0.500000000000     0.500000000000     0          
H2       H      0.403100000000     0.500000000000     0.500000000000     0          
C10      C      0.252000000000     0.500000000000     0.500000000000     0          
C15      C      0.171600000000     0.500000000000     0.500000000000     0          
C16      C      0.128900000000     0.500000000000     0.500000000000     0          
Zr1      Zr     0.291560000000     0.699290000000     0.799430000000     0          
C1       C      0.224300000000     0.441400000000     0.288600000000     0          
H1       H      0.206500000000     0.427600000000     0.315400000000     0          
C5       C      0.274400000000     0.632400000000     0.013500000000     0          
H3       H      0.288900000000     0.622700000000     0.977300000000     0          
C6       C      0.253200000000     0.665800000000     0.006200000000     0          
C7       C      0.252600000000     0.566000000000     0.192000000000     0          
H4       H      0.254600000000     0.552200000000     0.151600000000     0          
C8       C      0.252300000000     0.606000000000     0.190900000000     0          
C9       C      0.252800000000     0.627200000000     0.126200000000     0          
C11      C      0.224000000000     0.481600000000     0.289000000000     0          
H5       H      0.206100000000     0.495200000000     0.315900000000     0          
C12      C      0.252300000000     0.686700000000     0.940300000000     0          
C13      C      0.274900000000     0.612700000000     0.073400000000     0          
H6       H      0.289900000000     0.589800000000     0.078500000000     0          
C14      C      0.231800000000     0.680300000000     0.058700000000     0          
H7       H      0.217100000000     0.703300000000     0.053400000000     0          
C17      C      0.352500000000     0.680800000000     0.684400000000     0          
C18      C      0.232000000000     0.661300000000     0.118600000000     0          
H8       H      0.217900000000     0.671700000000     0.154700000000     0          
O2       O      0.278040000000     0.676990000000     0.898700000000     0          
O3       O      0.225900000000     0.710950000000     0.932500000000     0          
O4       O      0.224300000000     0.361940000000     0.284200000000     0          
O5       O      0.342900000000     0.714980000000     0.860000000000     0          
O6       O      0.343000000000     0.670700000000     0.755700000000     0          
O7       O      0.342000000000     0.712600000000     0.629200000000     0          
O8       O      0.228500000000     0.700100000000     0.800000000000     0          
H10?     H      0.218900000000     0.676500000000     0.823300000000     0          
Zr2      Zr     0.209390000000     0.750000000000     0.851320000000     0          
C3       C      0.354800000000     0.750000000000     0.878200000000     0          
O1       O      0.313800000000     0.750000000000     0.747800000000     0          
O9       O      0.271500000000     0.750000000000     0.847100000000     0          
H9       H      0.281700000000     0.750000000000     0.893200000000     0          
C2       C      0.250000000000     0.545500000000     0.250000000000     0          
C4       C      0.250000000000     0.625500000000     0.250000000000     0          
H2       H      0.250000000000     0.653100000000     0.250000000000     0          
C10      C      0.250000000000     0.502000000000     0.250000000000     0          
C15      C      0.250000000000     0.421600000000     0.250000000000     0          
C16      C      0.250000000000     0.378900000000     0.250000000000     0          
Zr1      Zr     0.050710000000     0.541560000000     0.549430000000     0          
C1       C      0.308600000000     0.474300000000     0.038600000000     0          
H1       H      0.322400000000     0.456500000000     0.065400000000     0          
C5       C      0.117600000000     0.524400000000     0.763500000000     0          
H3       H      0.127300000000     0.538900000000     0.727300000000     0          
C6       C      0.084200000000     0.503200000000     0.756200000000     0          
C7       C      0.184000000000     0.502600000000     0.942000000000     0          
H4       H      0.197800000000     0.504600000000     0.901600000000     0          
C8       C      0.144000000000     0.502300000000     0.940900000000     0          
C9       C      0.122800000000     0.502800000000     0.876200000000     0          
C11      C      0.268400000000     0.474000000000     0.039000000000     0          
H5       H      0.254800000000     0.456100000000     0.065900000000     0          
C12      C      0.063300000000     0.502300000000     0.690300000000     0          
C13      C      0.137300000000     0.524900000000     0.823400000000     0          
H6       H      0.160200000000     0.539900000000     0.828500000000     0          
C14      C      0.069700000000     0.481800000000     0.808700000000     0          
H7       H      0.046700000000     0.467100000000     0.803400000000     0          
C17      C      0.069200000000     0.602500000000     0.434400000000     0          
C18      C      0.088700000000     0.482000000000     0.868600000000     0          
H8       H      0.078300000000     0.467900000000     0.904700000000     0          
O2       O      0.073010000000     0.528040000000     0.648700000000     0          
O3       O      0.039050000000     0.475900000000     0.682500000000     0          
O4       O      0.388060000000     0.474300000000     0.034200000000     0          
O5       O      0.035020000000     0.592900000000     0.610000000000     0          
O6       O      0.079300000000     0.593000000000     0.505700000000     0          
O7       O      0.037400000000     0.592000000000     0.379200000000     0          
O8       O      0.049900000000     0.478500000000     0.550000000000     0          
H10?     H      0.073500000000     0.468900000000     0.573300000000     0          
C2       C      0.204500000000     0.500000000000     0.000000000000     0          
C4       C      0.124500000000     0.500000000000     0.000000000000     0          
H2       H      0.096900000000     0.500000000000     0.000000000000     0          
C10      C      0.248000000000     0.500000000000     0.000000000000     0          
C15      C      0.328400000000     0.500000000000     0.000000000000     0          
C16      C      0.371100000000     0.500000000000     0.000000000000     0          
Zr1      Zr     0.208440000000     0.300710000000     0.299430000000     0          
C1       C      0.275700000000     0.558600000000     0.788600000000     0          
H1       H      0.293500000000     0.572400000000     0.815400000000     0          
C5       C      0.225600000000     0.367600000000     0.513500000000     0          
H3       H      0.211100000000     0.377300000000     0.477300000000     0          
C6       C      0.246800000000     0.334200000000     0.506200000000     0          
C7       C      0.247400000000     0.434000000000     0.692000000000     0          
H4       H      0.245400000000     0.447800000000     0.651600000000     0          
C8       C      0.247700000000     0.394000000000     0.690900000000     0          
C9       C      0.247200000000     0.372800000000     0.626200000000     0          
C11      C      0.276000000000     0.518400000000     0.789000000000     0          
H5       H      0.293900000000     0.504800000000     0.815900000000     0          
C12      C      0.247700000000     0.313300000000     0.440300000000     0          
C13      C      0.225100000000     0.387300000000     0.573400000000     0          
H6       H      0.210100000000     0.410200000000     0.578500000000     0          
C14      C      0.268200000000     0.319700000000     0.558700000000     0          
H7       H      0.282900000000     0.296700000000     0.553400000000     0          
C17      C      0.147500000000     0.319200000000     0.184400000000     0          
C18      C      0.268000000000     0.338700000000     0.618600000000     0          
H8       H      0.282100000000     0.328300000000     0.654700000000     0          
O2       O      0.221960000000     0.323010000000     0.398700000000     0          
O3       O      0.274100000000     0.289050000000     0.432500000000     0          
O4       O      0.275700000000     0.638060000000     0.784200000000     0          
O5       O      0.157100000000     0.285020000000     0.360000000000     0          
O6       O      0.157000000000     0.329300000000     0.255700000000     0          
O7       O      0.158000000000     0.287400000000     0.129200000000     0          
O8       O      0.271500000000     0.299900000000     0.300000000000     0          
H10?     H      0.281100000000     0.323500000000     0.323300000000     0          
Zr2      Zr     0.290610000000     0.250000000000     0.351320000000     0          
C3       C      0.145200000000     0.250000000000     0.378200000000     0          
O1       O      0.186200000000     0.250000000000     0.247800000000     0          
O9       O      0.228500000000     0.250000000000     0.347100000000     0          
H9       H      0.218300000000     0.250000000000     0.393200000000     0          
C2       C      0.250000000000     0.454500000000     0.750000000000     0          
C4       C      0.250000000000     0.374500000000     0.750000000000     0          
H2       H      0.250000000000     0.346900000000     0.750000000000     0          
C10      C      0.250000000000     0.498000000000     0.750000000000     0          
C15      C      0.250000000000     0.578400000000     0.750000000000     0          
C16      C      0.250000000000     0.621100000000     0.750000000000     0          
Zr1      Zr     0.449290000000     0.541560000000     0.950570000000     0          
C1       C      0.191400000000     0.474300000000     0.461400000000     0          
H1       H      0.177600000000     0.456500000000     0.434600000000     0          
C5       C      0.382400000000     0.524400000000     0.736500000000     0          
H3       H      0.372700000000     0.538900000000     0.772700000000     0          
C6       C      0.415800000000     0.503200000000     0.743800000000     0          
C7       C      0.316000000000     0.502600000000     0.558000000000     0          
H4       H      0.302200000000     0.504600000000     0.598400000000     0          
C8       C      0.356000000000     0.502300000000     0.559100000000     0          
C9       C      0.377200000000     0.502800000000     0.623800000000     0          
C11      C      0.231600000000     0.474000000000     0.461000000000     0          
H5       H      0.245200000000     0.456100000000     0.434100000000     0          
C12      C      0.436700000000     0.502300000000     0.809700000000     0          
C13      C      0.362700000000     0.524900000000     0.676600000000     0          
H6       H      0.339800000000     0.539900000000     0.671500000000     0          
C14      C      0.430300000000     0.481800000000     0.691300000000     0          
H7       H      0.453300000000     0.467100000000     0.696600000000     0          
C17      C      0.430800000000     0.602500000000     0.065600000000     0          
C18      C      0.411300000000     0.482000000000     0.631400000000     0          
H8       H      0.421700000000     0.467900000000     0.595300000000     0          
O2       O      0.426990000000     0.528040000000     0.851300000000     0          
O3       O      0.460950000000     0.475900000000     0.817500000000     0          
O4       O      0.111940000000     0.474300000000     0.465800000000     0          
O5       O      0.464980000000     0.592900000000     0.890000000000     0          
O6       O      0.420700000000     0.593000000000     0.994300000000     0          
O7       O      0.462600000000     0.592000000000     0.120800000000     0          
O8       O      0.450100000000     0.478500000000     0.950000000000     0          
H10?     H      0.426500000000     0.468900000000     0.926700000000     0          
Zr1      Zr     0.208440000000     0.699290000000     0.700570000000     0          
C1       C      0.275700000000     0.441400000000     0.211400000000     0          
H1       H      0.293500000000     0.427600000000     0.184600000000     0          
C5       C      0.225600000000     0.632400000000     0.486500000000     0          
H3       H      0.211100000000     0.622700000000     0.522700000000     0          
C6       C      0.246800000000     0.665800000000     0.493800000000     0          
C7       C      0.247400000000     0.566000000000     0.308000000000     0          
H4       H      0.245400000000     0.552200000000     0.348400000000     0          
C8       C      0.247700000000     0.606000000000     0.309100000000     0          
C9       C      0.247200000000     0.627200000000     0.373800000000     0          
C11      C      0.276000000000     0.481600000000     0.211000000000     0          
H5       H      0.293900000000     0.495200000000     0.184100000000     0          
C12      C      0.247700000000     0.686700000000     0.559700000000     0          
C13      C      0.225100000000     0.612700000000     0.426600000000     0          
H6       H      0.210100000000     0.589800000000     0.421500000000     0          
C14      C      0.268200000000     0.680300000000     0.441300000000     0          
H7       H      0.282900000000     0.703300000000     0.446600000000     0          
C17      C      0.147500000000     0.680800000000     0.815600000000     0          
C18      C      0.268000000000     0.661300000000     0.381400000000     0          
H8       H      0.282100000000     0.671700000000     0.345300000000     0          
O2       O      0.221960000000     0.676990000000     0.601300000000     0          
O3       O      0.274100000000     0.710950000000     0.567500000000     0          
O4       O      0.275700000000     0.361940000000     0.215800000000     0          
O5       O      0.157100000000     0.714980000000     0.640000000000     0          
O6       O      0.157000000000     0.670700000000     0.744300000000     0          
O7       O      0.158000000000     0.712600000000     0.870800000000     0          
O8       O      0.271500000000     0.700100000000     0.700000000000     0          
H10?     H      0.281100000000     0.676500000000     0.676700000000     0          
Zr2      Zr     0.290610000000     0.750000000000     0.648680000000     0          
C3       C      0.145200000000     0.750000000000     0.621800000000     0          
O1       O      0.186200000000     0.750000000000     0.752200000000     0          
O9       O      0.228500000000     0.750000000000     0.652900000000     0          
H9       H      0.218300000000     0.750000000000     0.606800000000     0          
Zr1      Zr     0.050710000000     0.458440000000     0.450570000000     0          
C1       C      0.308600000000     0.525700000000     0.961400000000     0          
H1       H      0.322400000000     0.543500000000     0.934600000000     0          
C5       C      0.117600000000     0.475600000000     0.236500000000     0          
H3       H      0.127300000000     0.461100000000     0.272700000000     0          
C6       C      0.084200000000     0.496800000000     0.243800000000     0          
C7       C      0.184000000000     0.497400000000     0.058000000000     0          
H4       H      0.197800000000     0.495400000000     0.098400000000     0          
C8       C      0.144000000000     0.497700000000     0.059100000000     0          
C9       C      0.122800000000     0.497200000000     0.123800000000     0          
C11      C      0.268400000000     0.526000000000     0.961000000000     0          
H5       H      0.254800000000     0.543900000000     0.934100000000     0          
C12      C      0.063300000000     0.497700000000     0.309700000000     0          
C13      C      0.137300000000     0.475100000000     0.176600000000     0          
H6       H      0.160200000000     0.460100000000     0.171500000000     0          
C14      C      0.069700000000     0.518200000000     0.191300000000     0          
H7       H      0.046700000000     0.532900000000     0.196600000000     0          
C17      C      0.069200000000     0.397500000000     0.565600000000     0          
C18      C      0.088700000000     0.518000000000     0.131400000000     0          
H8       H      0.078300000000     0.532100000000     0.095300000000     0          
O2       O      0.073010000000     0.471960000000     0.351300000000     0          
O3       O      0.039050000000     0.524100000000     0.317500000000     0          
O4       O      0.388060000000     0.525700000000     0.965800000000     0          
O5       O      0.035020000000     0.407100000000     0.390000000000     0          
O6       O      0.079300000000     0.407000000000     0.494300000000     0          
O7       O      0.037400000000     0.408000000000     0.620800000000     0          
O8       O      0.049900000000     0.521500000000     0.450000000000     0          
H10?     H      0.073500000000     0.531100000000     0.426700000000     0          
Zr1      Zr     0.291560000000     0.300710000000     0.200570000000     0          
C1       C      0.224300000000     0.558600000000     0.711400000000     0          
H1       H      0.206500000000     0.572400000000     0.684600000000     0          
C5       C      0.274400000000     0.367600000000     0.986500000000     0          
H3       H      0.288900000000     0.377300000000     0.022700000000     0          
C6       C      0.253200000000     0.334200000000     0.993800000000     0          
C7       C      0.252600000000     0.434000000000     0.808000000000     0          
H4       H      0.254600000000     0.447800000000     0.848400000000     0          
C8       C      0.252300000000     0.394000000000     0.809100000000     0          
C9       C      0.252800000000     0.372800000000     0.873800000000     0          
C11      C      0.224000000000     0.518400000000     0.711000000000     0          
H5       H      0.206100000000     0.504800000000     0.684100000000     0          
C12      C      0.252300000000     0.313300000000     0.059700000000     0          
C13      C      0.274900000000     0.387300000000     0.926600000000     0          
H6       H      0.289900000000     0.410200000000     0.921500000000     0          
C14      C      0.231800000000     0.319700000000     0.941300000000     0          
H7       H      0.217100000000     0.296700000000     0.946600000000     0          
C17      C      0.352500000000     0.319200000000     0.315600000000     0          
C18      C      0.232000000000     0.338700000000     0.881400000000     0          
H8       H      0.217900000000     0.328300000000     0.845300000000     0          
O2       O      0.278040000000     0.323010000000     0.101300000000     0          
O3       O      0.225900000000     0.289050000000     0.067500000000     0          
O4       O      0.224300000000     0.638060000000     0.715800000000     0          
O5       O      0.342900000000     0.285020000000     0.140000000000     0          
O6       O      0.343000000000     0.329300000000     0.244300000000     0          
O7       O      0.342000000000     0.287400000000     0.370800000000     0          
O8       O      0.228500000000     0.299900000000     0.200000000000     0          
H10?     H      0.218900000000     0.323500000000     0.176700000000     0          
Zr2      Zr     0.209390000000     0.250000000000     0.148680000000     0          
C3       C      0.354800000000     0.250000000000     0.121800000000     0          
O1       O      0.313800000000     0.250000000000     0.252200000000     0          
O9       O      0.271500000000     0.250000000000     0.152900000000     0          
H9       H      0.281700000000     0.250000000000     0.106800000000     0          
Zr1      Zr     0.050710000000     0.041560000000     0.450570000000     0          
C1       C      0.308600000000     0.974300000000     0.961400000000     0          
H1       H      0.322400000000     0.956500000000     0.934600000000     0          
C5       C      0.117600000000     0.024400000000     0.236500000000     0          
H3       H      0.127300000000     0.038900000000     0.272700000000     0          
C6       C      0.084200000000     0.003200000000     0.243800000000     0          
C7       C      0.184000000000     0.002600000000     0.058000000000     0          
H4       H      0.197800000000     0.004600000000     0.098400000000     0          
C8       C      0.144000000000     0.002300000000     0.059100000000     0          
C9       C      0.122800000000     0.002800000000     0.123800000000     0          
C11      C      0.268400000000     0.974000000000     0.961000000000     0          
H5       H      0.254800000000     0.956100000000     0.934100000000     0          
C12      C      0.063300000000     0.002300000000     0.309700000000     0          
C13      C      0.137300000000     0.024900000000     0.176600000000     0          
H6       H      0.160200000000     0.039900000000     0.171500000000     0          
C14      C      0.069700000000     0.981800000000     0.191300000000     0          
H7       H      0.046700000000     0.967100000000     0.196600000000     0          
C17      C      0.069200000000     0.102500000000     0.565600000000     0          
C18      C      0.088700000000     0.982000000000     0.131400000000     0          
H8       H      0.078300000000     0.967900000000     0.095300000000     0          
O2       O      0.073010000000     0.028040000000     0.351300000000     0          
O3       O      0.039050000000     0.975900000000     0.317500000000     0          
O4       O      0.388060000000     0.974300000000     0.965800000000     0          
O5       O      0.035020000000     0.092900000000     0.390000000000     0          
O6       O      0.079300000000     0.093000000000     0.494300000000     0          
O7       O      0.037400000000     0.092000000000     0.620800000000     0          
O8       O      0.049900000000     0.978500000000     0.450000000000     0          
H10?     H      0.073500000000     0.968900000000     0.426700000000     0          
Zr2      Zr     0.000000000000     0.959390000000     0.398680000000     0          
C3       C      0.000000000000     0.104800000000     0.371800000000     0          
O1       O      0.000000000000     0.063800000000     0.502200000000     0          
O9       O      0.000000000000     0.021500000000     0.402900000000     0          
H9       H      0.000000000000     0.031700000000     0.356800000000     0          
C2       C      0.204500000000     0.000000000000     0.000000000000     0          
C4       C      0.124500000000     0.000000000000     0.000000000000     0          
H2       H      0.096900000000     0.000000000000     0.000000000000     0          
C10      C      0.248000000000     0.000000000000     0.000000000000     0          
C15      C      0.328400000000     0.000000000000     0.000000000000     0          
C16      C      0.371100000000     0.000000000000     0.000000000000     0          
Zr1      Zr     0.208440000000     0.800710000000     0.700570000000     0          
C1       C      0.275700000000     0.058600000000     0.211400000000     0          
H1       H      0.293500000000     0.072400000000     0.184600000000     0          
C5       C      0.225600000000     0.867600000000     0.486500000000     0          
H3       H      0.211100000000     0.877300000000     0.522700000000     0          
C6       C      0.246800000000     0.834200000000     0.493800000000     0          
C7       C      0.247400000000     0.934000000000     0.308000000000     0          
H4       H      0.245400000000     0.947800000000     0.348400000000     0          
C8       C      0.247700000000     0.894000000000     0.309100000000     0          
C9       C      0.247200000000     0.872800000000     0.373800000000     0          
C11      C      0.276000000000     0.018400000000     0.211000000000     0          
H5       H      0.293900000000     0.004800000000     0.184100000000     0          
C12      C      0.247700000000     0.813300000000     0.559700000000     0          
C13      C      0.225100000000     0.887300000000     0.426600000000     0          
H6       H      0.210100000000     0.910200000000     0.421500000000     0          
C14      C      0.268200000000     0.819700000000     0.441300000000     0          
H7       H      0.282900000000     0.796700000000     0.446600000000     0          
C17      C      0.147500000000     0.819200000000     0.815600000000     0          
C18      C      0.268000000000     0.838700000000     0.381400000000     0          
H8       H      0.282100000000     0.828300000000     0.345300000000     0          
O2       O      0.221960000000     0.823010000000     0.601300000000     0          
O3       O      0.274100000000     0.789050000000     0.567500000000     0          
O4       O      0.275700000000     0.138060000000     0.215800000000     0          
O5       O      0.157100000000     0.785020000000     0.640000000000     0          
O6       O      0.157000000000     0.829300000000     0.744300000000     0          
O7       O      0.158000000000     0.787400000000     0.870800000000     0          
O8       O      0.271500000000     0.799900000000     0.700000000000     0          
H10?     H      0.281100000000     0.823500000000     0.676700000000     0          
C2       C      0.250000000000     0.954500000000     0.250000000000     0          
C4       C      0.250000000000     0.874500000000     0.250000000000     0          
H2       H      0.250000000000     0.846900000000     0.250000000000     0          
C10      C      0.250000000000     0.998000000000     0.250000000000     0          
C15      C      0.250000000000     0.078400000000     0.250000000000     0          
C16      C      0.250000000000     0.121100000000     0.250000000000     0          
Zr1      Zr     0.449290000000     0.958440000000     0.950570000000     0          
C1       C      0.191400000000     0.025700000000     0.461400000000     0          
H1       H      0.177600000000     0.043500000000     0.434600000000     0          
C5       C      0.382400000000     0.975600000000     0.736500000000     0          
H3       H      0.372700000000     0.961100000000     0.772700000000     0          
C6       C      0.415800000000     0.996800000000     0.743800000000     0          
C7       C      0.316000000000     0.997400000000     0.558000000000     0          
H4       H      0.302200000000     0.995400000000     0.598400000000     0          
C8       C      0.356000000000     0.997700000000     0.559100000000     0          
C9       C      0.377200000000     0.997200000000     0.623800000000     0          
C11      C      0.231600000000     0.026000000000     0.461000000000     0          
H5       H      0.245200000000     0.043900000000     0.434100000000     0          
C12      C      0.436700000000     0.997700000000     0.809700000000     0          
C13      C      0.362700000000     0.975100000000     0.676600000000     0          
H6       H      0.339800000000     0.960100000000     0.671500000000     0          
C14      C      0.430300000000     0.018200000000     0.691300000000     0          
H7       H      0.453300000000     0.032900000000     0.696600000000     0          
C17      C      0.430800000000     0.897500000000     0.065600000000     0          
C18      C      0.411300000000     0.018000000000     0.631400000000     0          
H8       H      0.421700000000     0.032100000000     0.595300000000     0          
O2       O      0.426990000000     0.971960000000     0.851300000000     0          
O3       O      0.460950000000     0.024100000000     0.817500000000     0          
O4       O      0.111940000000     0.025700000000     0.465800000000     0          
O5       O      0.464980000000     0.907100000000     0.890000000000     0          
O6       O      0.420700000000     0.907000000000     0.994300000000     0          
O7       O      0.462600000000     0.908000000000     0.120800000000     0          
O8       O      0.450100000000     0.021500000000     0.950000000000     0          
H10?     H      0.426500000000     0.031100000000     0.926700000000     0          
Zr2      Zr     0.500000000000     0.040610000000     0.898680000000     0          
C3       C      0.500000000000     0.895200000000     0.871800000000     0          
O1       O      0.500000000000     0.936200000000     0.002200000000     0          
O9       O      0.500000000000     0.978500000000     0.902900000000     0          
H9       H      0.500000000000     0.968300000000     0.856800000000     0          
C2       C      0.295500000000     0.000000000000     0.500000000000     0          
C4       C      0.375500000000     0.000000000000     0.500000000000     0          
H2       H      0.403100000000     0.000000000000     0.500000000000     0          
C10      C      0.252000000000     0.000000000000     0.500000000000     0          
C15      C      0.171600000000     0.000000000000     0.500000000000     0          
C16      C      0.128900000000     0.000000000000     0.500000000000     0          
Zr1      Zr     0.291560000000     0.199290000000     0.200570000000     0          
C1       C      0.224300000000     0.941400000000     0.711400000000     0          
H1       H      0.206500000000     0.927600000000     0.684600000000     0          
C5       C      0.274400000000     0.132400000000     0.986500000000     0          
H3       H      0.288900000000     0.122700000000     0.022700000000     0          
C6       C      0.253200000000     0.165800000000     0.993800000000     0          
C7       C      0.252600000000     0.066000000000     0.808000000000     0          
H4       H      0.254600000000     0.052200000000     0.848400000000     0          
C8       C      0.252300000000     0.106000000000     0.809100000000     0          
C9       C      0.252800000000     0.127200000000     0.873800000000     0          
C11      C      0.224000000000     0.981600000000     0.711000000000     0          
H5       H      0.206100000000     0.995200000000     0.684100000000     0          
C12      C      0.252300000000     0.186700000000     0.059700000000     0          
C13      C      0.274900000000     0.112700000000     0.926600000000     0          
H6       H      0.289900000000     0.089800000000     0.921500000000     0          
C14      C      0.231800000000     0.180300000000     0.941300000000     0          
H7       H      0.217100000000     0.203300000000     0.946600000000     0          
C17      C      0.352500000000     0.180800000000     0.315600000000     0          
C18      C      0.232000000000     0.161300000000     0.881400000000     0          
H8       H      0.217900000000     0.171700000000     0.845300000000     0          
O2       O      0.278040000000     0.176990000000     0.101300000000     0          
O3       O      0.225900000000     0.210950000000     0.067500000000     0          
O4       O      0.224300000000     0.861940000000     0.715800000000     0          
O5       O      0.342900000000     0.214980000000     0.140000000000     0          
O6       O      0.343000000000     0.170700000000     0.244300000000     0          
O7       O      0.342000000000     0.212600000000     0.370800000000     0          
O8       O      0.228500000000     0.200100000000     0.200000000000     0          
H10?     H      0.218900000000     0.176500000000     0.176700000000     0          
C2       C      0.250000000000     0.045500000000     0.750000000000     0          
C4       C      0.250000000000     0.125500000000     0.750000000000     0          
H2       H      0.250000000000     0.153100000000     0.750000000000     0          
C10      C      0.250000000000     0.002000000000     0.750000000000     0          
C15      C      0.250000000000     0.921600000000     0.750000000000     0          
C16      C      0.250000000000     0.878900000000     0.750000000000     0          
Zr1      Zr     0.050710000000     0.958440000000     0.549430000000     0          
C1       C      0.308600000000     0.025700000000     0.038600000000     0          
H1       H      0.322400000000     0.043500000000     0.065400000000     0          
C5       C      0.117600000000     0.975600000000     0.763500000000     0          
H3       H      0.127300000000     0.961100000000     0.727300000000     0          
C6       C      0.084200000000     0.996800000000     0.756200000000     0          
C7       C      0.184000000000     0.997400000000     0.942000000000     0          
H4       H      0.197800000000     0.995400000000     0.901600000000     0          
C8       C      0.144000000000     0.997700000000     0.940900000000     0          
C9       C      0.122800000000     0.997200000000     0.876200000000     0          
C11      C      0.268400000000     0.026000000000     0.039000000000     0          
H5       H      0.254800000000     0.043900000000     0.065900000000     0          
C12      C      0.063300000000     0.997700000000     0.690300000000     0          
C13      C      0.137300000000     0.975100000000     0.823400000000     0          
H6       H      0.160200000000     0.960100000000     0.828500000000     0          
C14      C      0.069700000000     0.018200000000     0.808700000000     0          
H7       H      0.046700000000     0.032900000000     0.803400000000     0          
C17      C      0.069200000000     0.897500000000     0.434400000000     0          
C18      C      0.088700000000     0.018000000000     0.868600000000     0          
H8       H      0.078300000000     0.032100000000     0.904700000000     0          
O2       O      0.073010000000     0.971960000000     0.648700000000     0          
O3       O      0.039050000000     0.024100000000     0.682500000000     0          
O4       O      0.388060000000     0.025700000000     0.034200000000     0          
O5       O      0.035020000000     0.907100000000     0.610000000000     0          
O6       O      0.079300000000     0.907000000000     0.505700000000     0          
O7       O      0.037400000000     0.908000000000     0.379200000000     0          
O8       O      0.049900000000     0.021500000000     0.550000000000     0          
H10?     H      0.073500000000     0.031100000000     0.573300000000     0          
Zr2      Zr     0.000000000000     0.040610000000     0.601320000000     0          
C3       C      0.000000000000     0.895200000000     0.628200000000     0          
O1       O      0.000000000000     0.936200000000     0.497800000000     0          
O9       O      0.000000000000     0.978500000000     0.597100000000     0          
H9       H      0.000000000000     0.968300000000     0.643200000000     0          
Zr1      Zr     0.291560000000     0.800710000000     0.799430000000     0          
C1       C      0.224300000000     0.058600000000     0.288600000000     0          
H1       H      0.206500000000     0.072400000000     0.315400000000     0          
C5       C      0.274400000000     0.867600000000     0.013500000000     0          
H3       H      0.288900000000     0.877300000000     0.977300000000     0          
C6       C      0.253200000000     0.834200000000     0.006200000000     0          
C7       C      0.252600000000     0.934000000000     0.192000000000     0          
H4       H      0.254600000000     0.947800000000     0.151600000000     0          
C8       C      0.252300000000     0.894000000000     0.190900000000     0          
C9       C      0.252800000000     0.872800000000     0.126200000000     0          
C11      C      0.224000000000     0.018400000000     0.289000000000     0          
H5       H      0.206100000000     0.004800000000     0.315900000000     0          
C12      C      0.252300000000     0.813300000000     0.940300000000     0          
C13      C      0.274900000000     0.887300000000     0.073400000000     0          
H6       H      0.289900000000     0.910200000000     0.078500000000     0          
C14      C      0.231800000000     0.819700000000     0.058700000000     0          
H7       H      0.217100000000     0.796700000000     0.053400000000     0          
C17      C      0.352500000000     0.819200000000     0.684400000000     0          
C18      C      0.232000000000     0.838700000000     0.118600000000     0          
H8       H      0.217900000000     0.828300000000     0.154700000000     0          
O2       O      0.278040000000     0.823010000000     0.898700000000     0          
O3       O      0.225900000000     0.789050000000     0.932500000000     0          
O4       O      0.224300000000     0.138060000000     0.284200000000     0          
O5       O      0.342900000000     0.785020000000     0.860000000000     0          
O6       O      0.343000000000     0.829300000000     0.755700000000     0          
O7       O      0.342000000000     0.787400000000     0.629200000000     0          
O8       O      0.228500000000     0.799900000000     0.800000000000     0          
H10?     H      0.218900000000     0.823500000000     0.823300000000     0          
Zr1      Zr     0.449290000000     0.041560000000     0.049430000000     0          
C1       C      0.191400000000     0.974300000000     0.538600000000     0          
H1       H      0.177600000000     0.956500000000     0.565400000000     0          
C5       C      0.382400000000     0.024400000000     0.263500000000     0          
H3       H      0.372700000000     0.038900000000     0.227300000000     0          
C6       C      0.415800000000     0.003200000000     0.256200000000     0          
C7       C      0.316000000000     0.002600000000     0.442000000000     0          
H4       H      0.302200000000     0.004600000000     0.401600000000     0          
C8       C      0.356000000000     0.002300000000     0.440900000000     0          
C9       C      0.377200000000     0.002800000000     0.376200000000     0          
C11      C      0.231600000000     0.974000000000     0.539000000000     0          
H5       H      0.245200000000     0.956100000000     0.565900000000     0          
C12      C      0.436700000000     0.002300000000     0.190300000000     0          
C13      C      0.362700000000     0.024900000000     0.323400000000     0          
H6       H      0.339800000000     0.039900000000     0.328500000000     0          
C14      C      0.430300000000     0.981800000000     0.308700000000     0          
H7       H      0.453300000000     0.967100000000     0.303400000000     0          
C17      C      0.430800000000     0.102500000000     0.934400000000     0          
C18      C      0.411300000000     0.982000000000     0.368600000000     0          
H8       H      0.421700000000     0.967900000000     0.404700000000     0          
O2       O      0.426990000000     0.028040000000     0.148700000000     0          
O3       O      0.460950000000     0.975900000000     0.182500000000     0          
O4       O      0.111940000000     0.974300000000     0.534200000000     0          
O5       O      0.464980000000     0.092900000000     0.110000000000     0          
O6       O      0.420700000000     0.093000000000     0.005700000000     0          
O7       O      0.462600000000     0.092000000000     0.879200000000     0          
O8       O      0.450100000000     0.978500000000     0.050000000000     0          
H10?     H      0.426500000000     0.968900000000     0.073300000000     0          
Zr2      Zr     0.500000000000     0.959390000000     0.101320000000     0          
C3       C      0.500000000000     0.104800000000     0.128200000000     0          
O1       O      0.500000000000     0.063800000000     0.997800000000     0          
O9       O      0.500000000000     0.021500000000     0.097100000000     0          
H9       H      0.500000000000     0.031700000000     0.143200000000     0          
Zr1      Zr     0.208440000000     0.199290000000     0.299430000000     0          
C1       C      0.275700000000     0.941400000000     0.788600000000     0          
H1       H      0.293500000000     0.927600000000     0.815400000000     0          
C5       C      0.225600000000     0.132400000000     0.513500000000     0          
H3       H      0.211100000000     0.122700000000     0.477300000000     0          
C6       C      0.246800000000     0.165800000000     0.506200000000     0          
C7       C      0.247400000000     0.066000000000     0.692000000000     0          
H4       H      0.245400000000     0.052200000000     0.651600000000     0          
C8       C      0.247700000000     0.106000000000     0.690900000000     0          
C9       C      0.247200000000     0.127200000000     0.626200000000     0          
C11      C      0.276000000000     0.981600000000     0.789000000000     0          
H5       H      0.293900000000     0.995200000000     0.815900000000     0          
C12      C      0.247700000000     0.186700000000     0.440300000000     0          
C13      C      0.225100000000     0.112700000000     0.573400000000     0          
H6       H      0.210100000000     0.089800000000     0.578500000000     0          
C14      C      0.268200000000     0.180300000000     0.558700000000     0          
H7       H      0.282900000000     0.203300000000     0.553400000000     0          
C17      C      0.147500000000     0.180800000000     0.184400000000     0          
C18      C      0.268000000000     0.161300000000     0.618600000000     0          
H8       H      0.282100000000     0.171700000000     0.654700000000     0          
O2       O      0.221960000000     0.176990000000     0.398700000000     0          
O3       O      0.274100000000     0.210950000000     0.432500000000     0          
O4       O      0.275700000000     0.861940000000     0.784200000000     0          
O5       O      0.157100000000     0.214980000000     0.360000000000     0          
O6       O      0.157000000000     0.170700000000     0.255700000000     0          
O7       O      0.158000000000     0.212600000000     0.129200000000     0          
O8       O      0.271500000000     0.200100000000     0.300000000000     0          
H10?     H      0.281100000000     0.176500000000     0.323300000000     0          
Zr1      Zr     0.949290000000     0.958440000000     0.549430000000     0          
C1       C      0.691400000000     0.025700000000     0.038600000000     0          
H1       H      0.677600000000     0.043500000000     0.065400000000     0          
C5       C      0.882400000000     0.975600000000     0.763500000000     0          
H3       H      0.872700000000     0.961100000000     0.727300000000     0          
C6       C      0.915800000000     0.996800000000     0.756200000000     0          
C7       C      0.816000000000     0.997400000000     0.942000000000     0          
H4       H      0.802200000000     0.995400000000     0.901600000000     0          
C8       C      0.856000000000     0.997700000000     0.940900000000     0          
C9       C      0.877200000000     0.997200000000     0.876200000000     0          
C11      C      0.731600000000     0.026000000000     0.039000000000     0          
H5       H      0.745200000000     0.043900000000     0.065900000000     0          
C12      C      0.936700000000     0.997700000000     0.690300000000     0          
C13      C      0.862700000000     0.975100000000     0.823400000000     0          
H6       H      0.839800000000     0.960100000000     0.828500000000     0          
C14      C      0.930300000000     0.018200000000     0.808700000000     0          
H7       H      0.953300000000     0.032900000000     0.803400000000     0          
C17      C      0.930800000000     0.897500000000     0.434400000000     0          
C18      C      0.911300000000     0.018000000000     0.868600000000     0          
H8       H      0.921700000000     0.032100000000     0.904700000000     0          
O2       O      0.926990000000     0.971960000000     0.648700000000     0          
O3       O      0.960950000000     0.024100000000     0.682500000000     0          
O4       O      0.611940000000     0.025700000000     0.034200000000     0          
O5       O      0.964980000000     0.907100000000     0.610000000000     0          
O6       O      0.920700000000     0.907000000000     0.505700000000     0          
O7       O      0.962600000000     0.908000000000     0.379200000000     0          
O8       O      0.950100000000     0.021500000000     0.550000000000     0          
H10?     H      0.926500000000     0.031100000000     0.573300000000     0          
C2       C      0.795500000000     0.000000000000     0.000000000000     0          
C4       C      0.875500000000     0.000000000000     0.000000000000     0          
H2       H      0.903100000000     0.000000000000     0.000000000000     0          
C10      C      0.752000000000     0.000000000000     0.000000000000     0          
C15      C      0.671600000000     0.000000000000     0.000000000000     0          
C16      C      0.628900000000     0.000000000000     0.000000000000     0          
Zr1      Zr     0.791560000000     0.199290000000     0.299430000000     0          
C1       C      0.724300000000     0.941400000000     0.788600000000     0          
H1       H      0.706500000000     0.927600000000     0.815400000000     0          
C5       C      0.774400000000     0.132400000000     0.513500000000     0          
H3       H      0.788900000000     0.122700000000     0.477300000000     0          
C6       C      0.753200000000     0.165800000000     0.506200000000     0          
C7       C      0.752600000000     0.066000000000     0.692000000000     0          
H4       H      0.754600000000     0.052200000000     0.651600000000     0          
C8       C      0.752300000000     0.106000000000     0.690900000000     0          
C9       C      0.752800000000     0.127200000000     0.626200000000     0          
C11      C      0.724000000000     0.981600000000     0.789000000000     0          
H5       H      0.706100000000     0.995200000000     0.815900000000     0          
C12      C      0.752300000000     0.186700000000     0.440300000000     0          
C13      C      0.774900000000     0.112700000000     0.573400000000     0          
H6       H      0.789900000000     0.089800000000     0.578500000000     0          
C14      C      0.731800000000     0.180300000000     0.558700000000     0          
H7       H      0.717100000000     0.203300000000     0.553400000000     0          
C17      C      0.852500000000     0.180800000000     0.184400000000     0          
C18      C      0.732000000000     0.161300000000     0.618600000000     0          
H8       H      0.717900000000     0.171700000000     0.654700000000     0          
O2       O      0.778040000000     0.176990000000     0.398700000000     0          
O3       O      0.725900000000     0.210950000000     0.432500000000     0          
O4       O      0.724300000000     0.861940000000     0.784200000000     0          
O5       O      0.842900000000     0.214980000000     0.360000000000     0          
O6       O      0.843000000000     0.170700000000     0.255700000000     0          
O7       O      0.842000000000     0.212600000000     0.129200000000     0          
O8       O      0.728500000000     0.200100000000     0.300000000000     0          
H10?     H      0.718900000000     0.176500000000     0.323300000000     0          
C2       C      0.750000000000     0.045500000000     0.750000000000     0          
C4       C      0.750000000000     0.125500000000     0.750000000000     0          
H2       H      0.750000000000     0.153100000000     0.750000000000     0          
C10      C      0.750000000000     0.002000000000     0.750000000000     0          
C15      C      0.750000000000     0.921600000000     0.750000000000     0          
C16      C      0.750000000000     0.878900000000     0.750000000000     0          
Zr1      Zr     0.550710000000     0.041560000000     0.049430000000     0          
C1       C      0.808600000000     0.974300000000     0.538600000000     0          
H1       H      0.822400000000     0.956500000000     0.565400000000     0          
C5       C      0.617600000000     0.024400000000     0.263500000000     0          
H3       H      0.627300000000     0.038900000000     0.227300000000     0          
C6       C      0.584200000000     0.003200000000     0.256200000000     0          
C7       C      0.684000000000     0.002600000000     0.442000000000     0          
H4       H      0.697800000000     0.004600000000     0.401600000000     0          
C8       C      0.644000000000     0.002300000000     0.440900000000     0          
C9       C      0.622800000000     0.002800000000     0.376200000000     0          
C11      C      0.768400000000     0.974000000000     0.539000000000     0          
H5       H      0.754800000000     0.956100000000     0.565900000000     0          
C12      C      0.563300000000     0.002300000000     0.190300000000     0          
C13      C      0.637300000000     0.024900000000     0.323400000000     0          
H6       H      0.660200000000     0.039900000000     0.328500000000     0          
C14      C      0.569700000000     0.981800000000     0.308700000000     0          
H7       H      0.546700000000     0.967100000000     0.303400000000     0          
C17      C      0.569200000000     0.102500000000     0.934400000000     0          
C18      C      0.588700000000     0.982000000000     0.368600000000     0          
H8       H      0.578300000000     0.967900000000     0.404700000000     0          
O2       O      0.573010000000     0.028040000000     0.148700000000     0          
O3       O      0.539050000000     0.975900000000     0.182500000000     0          
O4       O      0.888060000000     0.974300000000     0.534200000000     0          
O5       O      0.535020000000     0.092900000000     0.110000000000     0          
O6       O      0.579300000000     0.093000000000     0.005700000000     0          
O7       O      0.537400000000     0.092000000000     0.879200000000     0          
O8       O      0.549900000000     0.978500000000     0.050000000000     0          
H10?     H      0.573500000000     0.968900000000     0.073300000000     0          
C2       C      0.704500000000     0.000000000000     0.500000000000     0          
C4       C      0.624500000000     0.000000000000     0.500000000000     0          
H2       H      0.596900000000     0.000000000000     0.500000000000     0          
C10      C      0.748000000000     0.000000000000     0.500000000000     0          
C15      C      0.828400000000     0.000000000000     0.500000000000     0          
C16      C      0.871100000000     0.000000000000     0.500000000000     0          
Zr1      Zr     0.708440000000     0.800710000000     0.799430000000     0          
C1       C      0.775700000000     0.058600000000     0.288600000000     0          
H1       H      0.793500000000     0.072400000000     0.315400000000     0          
C5       C      0.725600000000     0.867600000000     0.013500000000     0          
H3       H      0.711100000000     0.877300000000     0.977300000000     0          
C6       C      0.746800000000     0.834200000000     0.006200000000     0          
C7       C      0.747400000000     0.934000000000     0.192000000000     0          
H4       H      0.745400000000     0.947800000000     0.151600000000     0          
C8       C      0.747700000000     0.894000000000     0.190900000000     0          
C9       C      0.747200000000     0.872800000000     0.126200000000     0          
C11      C      0.776000000000     0.018400000000     0.289000000000     0          
H5       H      0.793900000000     0.004800000000     0.315900000000     0          
C12      C      0.747700000000     0.813300000000     0.940300000000     0          
C13      C      0.725100000000     0.887300000000     0.073400000000     0          
H6       H      0.710100000000     0.910200000000     0.078500000000     0          
C14      C      0.768200000000     0.819700000000     0.058700000000     0          
H7       H      0.782900000000     0.796700000000     0.053400000000     0          
C17      C      0.647500000000     0.819200000000     0.684400000000     0          
C18      C      0.768000000000     0.838700000000     0.118600000000     0          
H8       H      0.782100000000     0.828300000000     0.154700000000     0          
O2       O      0.721960000000     0.823010000000     0.898700000000     0          
O3       O      0.774100000000     0.789050000000     0.932500000000     0          
O4       O      0.775700000000     0.138060000000     0.284200000000     0          
O5       O      0.657100000000     0.785020000000     0.860000000000     0          
O6       O      0.657000000000     0.829300000000     0.755700000000     0          
O7       O      0.658000000000     0.787400000000     0.629200000000     0          
O8       O      0.771500000000     0.799900000000     0.800000000000     0          
H10?     H      0.781100000000     0.823500000000     0.823300000000     0          
C2       C      0.750000000000     0.954500000000     0.250000000000     0          
C4       C      0.750000000000     0.874500000000     0.250000000000     0          
H2       H      0.750000000000     0.846900000000     0.250000000000     0          
C10      C      0.750000000000     0.998000000000     0.250000000000     0          
C15      C      0.750000000000     0.078400000000     0.250000000000     0          
C16      C      0.750000000000     0.121100000000     0.250000000000     0          
Zr1      Zr     0.949290000000     0.041560000000     0.450570000000     0          
C1       C      0.691400000000     0.974300000000     0.961400000000     0          
H1       H      0.677600000000     0.956500000000     0.934600000000     0          
C5       C      0.882400000000     0.024400000000     0.236500000000     0          
H3       H      0.872700000000     0.038900000000     0.272700000000     0          
C6       C      0.915800000000     0.003200000000     0.243800000000     0          
C7       C      0.816000000000     0.002600000000     0.058000000000     0          
H4       H      0.802200000000     0.004600000000     0.098400000000     0          
C8       C      0.856000000000     0.002300000000     0.059100000000     0          
C9       C      0.877200000000     0.002800000000     0.123800000000     0          
C11      C      0.731600000000     0.974000000000     0.961000000000     0          
H5       H      0.745200000000     0.956100000000     0.934100000000     0          
C12      C      0.936700000000     0.002300000000     0.309700000000     0          
C13      C      0.862700000000     0.024900000000     0.176600000000     0          
H6       H      0.839800000000     0.039900000000     0.171500000000     0          
C14      C      0.930300000000     0.981800000000     0.191300000000     0          
H7       H      0.953300000000     0.967100000000     0.196600000000     0          
C17      C      0.930800000000     0.102500000000     0.565600000000     0          
C18      C      0.911300000000     0.982000000000     0.131400000000     0          
H8       H      0.921700000000     0.967900000000     0.095300000000     0          
O2       O      0.926990000000     0.028040000000     0.351300000000     0          
O3       O      0.960950000000     0.975900000000     0.317500000000     0          
O4       O      0.611940000000     0.974300000000     0.965800000000     0          
O5       O      0.964980000000     0.092900000000     0.390000000000     0          
O6       O      0.920700000000     0.093000000000     0.494300000000     0          
O7       O      0.962600000000     0.092000000000     0.620800000000     0          
O8       O      0.950100000000     0.978500000000     0.450000000000     0          
H10?     H      0.926500000000     0.968900000000     0.426700000000     0          
Zr1      Zr     0.708440000000     0.199290000000     0.200570000000     0          
C1       C      0.775700000000     0.941400000000     0.711400000000     0          
H1       H      0.793500000000     0.927600000000     0.684600000000     0          
C5       C      0.725600000000     0.132400000000     0.986500000000     0          
H3       H      0.711100000000     0.122700000000     0.022700000000     0          
C6       C      0.746800000000     0.165800000000     0.993800000000     0          
C7       C      0.747400000000     0.066000000000     0.808000000000     0          
H4       H      0.745400000000     0.052200000000     0.848400000000     0          
C8       C      0.747700000000     0.106000000000     0.809100000000     0          
C9       C      0.747200000000     0.127200000000     0.873800000000     0          
C11      C      0.776000000000     0.981600000000     0.711000000000     0          
H5       H      0.793900000000     0.995200000000     0.684100000000     0          
C12      C      0.747700000000     0.186700000000     0.059700000000     0          
C13      C      0.725100000000     0.112700000000     0.926600000000     0          
H6       H      0.710100000000     0.089800000000     0.921500000000     0          
C14      C      0.768200000000     0.180300000000     0.941300000000     0          
H7       H      0.782900000000     0.203300000000     0.946600000000     0          
C17      C      0.647500000000     0.180800000000     0.315600000000     0          
C18      C      0.768000000000     0.161300000000     0.881400000000     0          
H8       H      0.782100000000     0.171700000000     0.845300000000     0          
O2       O      0.721960000000     0.176990000000     0.101300000000     0          
O3       O      0.774100000000     0.210950000000     0.067500000000     0          
O4       O      0.775700000000     0.861940000000     0.715800000000     0          
O5       O      0.657100000000     0.214980000000     0.140000000000     0          
O6       O      0.657000000000     0.170700000000     0.244300000000     0          
O7       O      0.658000000000     0.212600000000     0.370800000000     0          
O8       O      0.771500000000     0.200100000000     0.200000000000     0          
H10?     H      0.781100000000     0.176500000000     0.176700000000     0          
Zr1      Zr     0.550710000000     0.958440000000     0.950570000000     0          
C1       C      0.808600000000     0.025700000000     0.461400000000     0          
H1       H      0.822400000000     0.043500000000     0.434600000000     0          
C5       C      0.617600000000     0.975600000000     0.736500000000     0          
H3       H      0.627300000000     0.961100000000     0.772700000000     0          
C6       C      0.584200000000     0.996800000000     0.743800000000     0          
C7       C      0.684000000000     0.997400000000     0.558000000000     0          
H4       H      0.697800000000     0.995400000000     0.598400000000     0          
C8       C      0.644000000000     0.997700000000     0.559100000000     0          
C9       C      0.622800000000     0.997200000000     0.623800000000     0          
C11      C      0.768400000000     0.026000000000     0.461000000000     0          
H5       H      0.754800000000     0.043900000000     0.434100000000     0          
C12      C      0.563300000000     0.997700000000     0.809700000000     0          
C13      C      0.637300000000     0.975100000000     0.676600000000     0          
H6       H      0.660200000000     0.960100000000     0.671500000000     0          
C14      C      0.569700000000     0.018200000000     0.691300000000     0          
H7       H      0.546700000000     0.032900000000     0.696600000000     0          
C17      C      0.569200000000     0.897500000000     0.065600000000     0          
C18      C      0.588700000000     0.018000000000     0.631400000000     0          
H8       H      0.578300000000     0.032100000000     0.595300000000     0          
O2       O      0.573010000000     0.971960000000     0.851300000000     0          
O3       O      0.539050000000     0.024100000000     0.817500000000     0          
O4       O      0.888060000000     0.025700000000     0.465800000000     0          
O5       O      0.535020000000     0.907100000000     0.890000000000     0          
O6       O      0.579300000000     0.907000000000     0.994300000000     0          
O7       O      0.537400000000     0.908000000000     0.120800000000     0          
O8       O      0.549900000000     0.021500000000     0.950000000000     0          
H10?     H      0.573500000000     0.031100000000     0.926700000000     0          
Zr1      Zr     0.791560000000     0.800710000000     0.700570000000     0          
C1       C      0.724300000000     0.058600000000     0.211400000000     0          
H1       H      0.706500000000     0.072400000000     0.184600000000     0          
C5       C      0.774400000000     0.867600000000     0.486500000000     0          
H3       H      0.788900000000     0.877300000000     0.522700000000     0          
C6       C      0.753200000000     0.834200000000     0.493800000000     0          
C7       C      0.752600000000     0.934000000000     0.308000000000     0          
H4       H      0.754600000000     0.947800000000     0.348400000000     0          
C8       C      0.752300000000     0.894000000000     0.309100000000     0          
C9       C      0.752800000000     0.872800000000     0.373800000000     0          
C11      C      0.724000000000     0.018400000000     0.211000000000     0          
H5       H      0.706100000000     0.004800000000     0.184100000000     0          
C12      C      0.752300000000     0.813300000000     0.559700000000     0          
C13      C      0.774900000000     0.887300000000     0.426600000000     0          
H6       H      0.789900000000     0.910200000000     0.421500000000     0          
C14      C      0.731800000000     0.819700000000     0.441300000000     0          
H7       H      0.717100000000     0.796700000000     0.446600000000     0          
C17      C      0.852500000000     0.819200000000     0.815600000000     0          
C18      C      0.732000000000     0.838700000000     0.381400000000     0          
H8       H      0.717900000000     0.828300000000     0.345300000000     0          
O2       O      0.778040000000     0.823010000000     0.601300000000     0          
O3       O      0.725900000000     0.789050000000     0.567500000000     0          
O4       O      0.724300000000     0.138060000000     0.215800000000     0          
O5       O      0.842900000000     0.785020000000     0.640000000000     0          
O6       O      0.843000000000     0.829300000000     0.744300000000     0          
O7       O      0.842000000000     0.787400000000     0.870800000000     0          
O8       O      0.728500000000     0.799900000000     0.700000000000     0          
H10?     H      0.718900000000     0.823500000000     0.676700000000     0          


