data_VEGBUG\(2)
_audit_creation_date              2021-02-02
_audit_creation_method            'Materials Studio'
_symmetry_space_group_name_H-M    'P1'
_symmetry_Int_Tables_number       1
_symmetry_cell_setting            triclinic
loop_
_symmetry_equiv_pos_as_xyz
  x,y,z
_cell_length_a                    49.9640
_cell_length_b                    49.9640
_cell_length_c                    49.9640
_cell_angle_alpha                 90.0000
_cell_angle_beta                  90.0000
_cell_angle_gamma                 90.0000
loop_
_atom_site_label
_atom_site_type_symbol
_atom_site_fract_x
_atom_site_fract_y
_atom_site_fract_z
_atom_site_U_iso_or_equiv
_atom_site_adp_type
_atom_site_occupancy
S1     S     0.14130   0.41380   0.25053   0.00000  Uiso   1.00
O2     O     0.18004   0.47321   0.21779   0.00000  Uiso   1.00
O3     O     0.18625   0.45032   0.25609   0.00000  Uiso   1.00
C4     C     0.15054   0.43881   0.22825   0.00000  Uiso   1.00
C5     C     0.13521   0.43954   0.20610   0.00000  Uiso   1.00
H6     H     0.13965   0.45472   0.18965   0.00000  Uiso   1.00
C7     C     0.11485   0.41999   0.20716   0.00000  Uiso   1.00
C8     C     0.17418   0.45547   0.23456   0.00000  Uiso   1.00
C9     C     0.11563   0.40450   0.22992   0.00000  Uiso   1.00
S10    S     0.14130   0.91380   0.75053   0.00000  Uiso   1.00
O11    O     0.18004   0.97321   0.71779   0.00000  Uiso   1.00
O12    O     0.18625   0.95032   0.75609   0.00000  Uiso   1.00
C13    C     0.15054   0.93881   0.72825   0.00000  Uiso   1.00
C14    C     0.13521   0.93954   0.70610   0.00000  Uiso   1.00
H15    H     0.13965   0.95472   0.68965   0.00000  Uiso   1.00
C16    C     0.11485   0.91999   0.70716   0.00000  Uiso   1.00
C17    C     0.17418   0.95547   0.73456   0.00000  Uiso   1.00
C18    C     0.11563   0.90450   0.72992   0.00000  Uiso   1.00
S19    S     0.64130   0.41380   0.75053   0.00000  Uiso   1.00
O20    O     0.68004   0.47321   0.71779   0.00000  Uiso   1.00
O21    O     0.68625   0.45032   0.75609   0.00000  Uiso   1.00
C22    C     0.65054   0.43881   0.72825   0.00000  Uiso   1.00
C23    C     0.63521   0.43954   0.70610   0.00000  Uiso   1.00
H24    H     0.63965   0.45472   0.68965   0.00000  Uiso   1.00
C25    C     0.61485   0.41999   0.70716   0.00000  Uiso   1.00
C26    C     0.67418   0.45547   0.73456   0.00000  Uiso   1.00
C27    C     0.61563   0.40450   0.72992   0.00000  Uiso   1.00
S28    S     0.64130   0.91380   0.25053   0.00000  Uiso   1.00
O29    O     0.68004   0.97321   0.21779   0.00000  Uiso   1.00
O30    O     0.68625   0.95032   0.25609   0.00000  Uiso   1.00
C31    C     0.65054   0.93881   0.22825   0.00000  Uiso   1.00
C32    C     0.63521   0.93954   0.20610   0.00000  Uiso   1.00
H33    H     0.63965   0.95472   0.18965   0.00000  Uiso   1.00
C34    C     0.61485   0.91999   0.20716   0.00000  Uiso   1.00
C35    C     0.67418   0.95547   0.23456   0.00000  Uiso   1.00
C36    C     0.61563   0.90450   0.22992   0.00000  Uiso   1.00
S37    S     0.85870   0.58620   0.25053   0.00000  Uiso   1.00
O38    O     0.81996   0.52679   0.21779   0.00000  Uiso   1.00
O39    O     0.81375   0.54968   0.25609   0.00000  Uiso   1.00
C40    C     0.84946   0.56119   0.22825   0.00000  Uiso   1.00
C41    C     0.86479   0.56046   0.20610   0.00000  Uiso   1.00
H42    H     0.86035   0.54528   0.18965   0.00000  Uiso   1.00
C43    C     0.88515   0.58001   0.20716   0.00000  Uiso   1.00
C44    C     0.82582   0.54453   0.23456   0.00000  Uiso   1.00
C45    C     0.88437   0.59550   0.22992   0.00000  Uiso   1.00
S46    S     0.85870   0.08620   0.75053   0.00000  Uiso   1.00
O47    O     0.81996   0.02679   0.71779   0.00000  Uiso   1.00
O48    O     0.81375   0.04968   0.75609   0.00000  Uiso   1.00
C49    C     0.84946   0.06119   0.72825   0.00000  Uiso   1.00
C50    C     0.86479   0.06046   0.70610   0.00000  Uiso   1.00
H51    H     0.86035   0.04528   0.68965   0.00000  Uiso   1.00
C52    C     0.88515   0.08001   0.70716   0.00000  Uiso   1.00
C53    C     0.82582   0.04453   0.73456   0.00000  Uiso   1.00
C54    C     0.88437   0.09550   0.72992   0.00000  Uiso   1.00
S55    S     0.35870   0.58620   0.75053   0.00000  Uiso   1.00
O56    O     0.31996   0.52679   0.71779   0.00000  Uiso   1.00
O57    O     0.31375   0.54968   0.75609   0.00000  Uiso   1.00
C58    C     0.34946   0.56119   0.72825   0.00000  Uiso   1.00
C59    C     0.36479   0.56046   0.70610   0.00000  Uiso   1.00
H60    H     0.36035   0.54528   0.68965   0.00000  Uiso   1.00
C61    C     0.38515   0.58001   0.70716   0.00000  Uiso   1.00
C62    C     0.32582   0.54453   0.73456   0.00000  Uiso   1.00
C63    C     0.38437   0.59550   0.72992   0.00000  Uiso   1.00
S64    S     0.35870   0.08620   0.25053   0.00000  Uiso   1.00
O65    O     0.31996   0.02679   0.21779   0.00000  Uiso   1.00
O66    O     0.31375   0.04968   0.25609   0.00000  Uiso   1.00
C67    C     0.34946   0.06119   0.22825   0.00000  Uiso   1.00
C68    C     0.36479   0.06046   0.20610   0.00000  Uiso   1.00
H69    H     0.36035   0.04528   0.18965   0.00000  Uiso   1.00
C70    C     0.38515   0.08001   0.20716   0.00000  Uiso   1.00
C71    C     0.32582   0.04453   0.23456   0.00000  Uiso   1.00
C72    C     0.38437   0.09550   0.22992   0.00000  Uiso   1.00
S73    S     0.85870   0.41380   0.74947   0.00000  Uiso   1.00
O74    O     0.81996   0.47321   0.78221   0.00000  Uiso   1.00
O75    O     0.81375   0.45032   0.74391   0.00000  Uiso   1.00
C76    C     0.84946   0.43881   0.77175   0.00000  Uiso   1.00
C77    C     0.86479   0.43954   0.79390   0.00000  Uiso   1.00
H78    H     0.86035   0.45472   0.81035   0.00000  Uiso   1.00
C79    C     0.88515   0.41999   0.79284   0.00000  Uiso   1.00
C80    C     0.82582   0.45547   0.76544   0.00000  Uiso   1.00
C81    C     0.88437   0.40450   0.77008   0.00000  Uiso   1.00
S82    S     0.85870   0.91380   0.24947   0.00000  Uiso   1.00
O83    O     0.81996   0.97321   0.28221   0.00000  Uiso   1.00
O84    O     0.81375   0.95032   0.24391   0.00000  Uiso   1.00
C85    C     0.84946   0.93881   0.27175   0.00000  Uiso   1.00
C86    C     0.86479   0.93954   0.29390   0.00000  Uiso   1.00
H87    H     0.86035   0.95472   0.31035   0.00000  Uiso   1.00
C88    C     0.88515   0.91999   0.29284   0.00000  Uiso   1.00
C89    C     0.82582   0.95547   0.26544   0.00000  Uiso   1.00
C90    C     0.88437   0.90450   0.27008   0.00000  Uiso   1.00
S91    S     0.35870   0.41380   0.24947   0.00000  Uiso   1.00
O92    O     0.31996   0.47321   0.28221   0.00000  Uiso   1.00
O93    O     0.31375   0.45032   0.24391   0.00000  Uiso   1.00
C94    C     0.34946   0.43881   0.27175   0.00000  Uiso   1.00
C95    C     0.36479   0.43954   0.29390   0.00000  Uiso   1.00
H96    H     0.36035   0.45472   0.31035   0.00000  Uiso   1.00
C97    C     0.38515   0.41999   0.29284   0.00000  Uiso   1.00
C98    C     0.32582   0.45547   0.26544   0.00000  Uiso   1.00
C99    C     0.38437   0.40450   0.27008   0.00000  Uiso   1.00
S100   S     0.35870   0.91380   0.74947   0.00000  Uiso   1.00
O101   O     0.31996   0.97321   0.78221   0.00000  Uiso   1.00
O102   O     0.31375   0.95032   0.74391   0.00000  Uiso   1.00
C103   C     0.34946   0.93881   0.77175   0.00000  Uiso   1.00
C104   C     0.36479   0.93954   0.79390   0.00000  Uiso   1.00
H105   H     0.36035   0.95472   0.81035   0.00000  Uiso   1.00
C106   C     0.38515   0.91999   0.79284   0.00000  Uiso   1.00
C107   C     0.32582   0.95547   0.76544   0.00000  Uiso   1.00
C108   C     0.38437   0.90450   0.77008   0.00000  Uiso   1.00
S109   S     0.14130   0.58620   0.74947   0.00000  Uiso   1.00
O110   O     0.18004   0.52679   0.78221   0.00000  Uiso   1.00
O111   O     0.18625   0.54968   0.74391   0.00000  Uiso   1.00
C112   C     0.15054   0.56119   0.77175   0.00000  Uiso   1.00
C113   C     0.13521   0.56046   0.79390   0.00000  Uiso   1.00
H114   H     0.13965   0.54528   0.81035   0.00000  Uiso   1.00
C115   C     0.11485   0.58001   0.79284   0.00000  Uiso   1.00
C116   C     0.17418   0.54453   0.76544   0.00000  Uiso   1.00
C117   C     0.11563   0.59550   0.77008   0.00000  Uiso   1.00
S118   S     0.14130   0.08620   0.24947   0.00000  Uiso   1.00
O119   O     0.18004   0.02679   0.28221   0.00000  Uiso   1.00
O120   O     0.18625   0.04968   0.24391   0.00000  Uiso   1.00
C121   C     0.15054   0.06119   0.27175   0.00000  Uiso   1.00
C122   C     0.13521   0.06046   0.29390   0.00000  Uiso   1.00
H123   H     0.13965   0.04528   0.31035   0.00000  Uiso   1.00
C124   C     0.11485   0.08001   0.29284   0.00000  Uiso   1.00
C125   C     0.17418   0.04453   0.26544   0.00000  Uiso   1.00
C126   C     0.11563   0.09550   0.27008   0.00000  Uiso   1.00
S127   S     0.64130   0.58620   0.24947   0.00000  Uiso   1.00
O128   O     0.68004   0.52679   0.28221   0.00000  Uiso   1.00
O129   O     0.68625   0.54968   0.24391   0.00000  Uiso   1.00
C130   C     0.65054   0.56119   0.27175   0.00000  Uiso   1.00
C131   C     0.63521   0.56046   0.29390   0.00000  Uiso   1.00
H132   H     0.63965   0.54528   0.31035   0.00000  Uiso   1.00
C133   C     0.61485   0.58001   0.29284   0.00000  Uiso   1.00
C134   C     0.67418   0.54453   0.26544   0.00000  Uiso   1.00
C135   C     0.61563   0.59550   0.27008   0.00000  Uiso   1.00
S136   S     0.64130   0.08620   0.74947   0.00000  Uiso   1.00
O137   O     0.68004   0.02679   0.78221   0.00000  Uiso   1.00
O138   O     0.68625   0.04968   0.74391   0.00000  Uiso   1.00
C139   C     0.65054   0.06119   0.77175   0.00000  Uiso   1.00
C140   C     0.63521   0.06046   0.79390   0.00000  Uiso   1.00
H141   H     0.63965   0.04528   0.81035   0.00000  Uiso   1.00
C142   C     0.61485   0.08001   0.79284   0.00000  Uiso   1.00
C143   C     0.67418   0.04453   0.76544   0.00000  Uiso   1.00
C144   C     0.61563   0.09550   0.77008   0.00000  Uiso   1.00
S145   S     0.25053   0.14130   0.41380   0.00000  Uiso   1.00
O146   O     0.21779   0.18004   0.47321   0.00000  Uiso   1.00
O147   O     0.25609   0.18625   0.45032   0.00000  Uiso   1.00
C148   C     0.22825   0.15054   0.43881   0.00000  Uiso   1.00
C149   C     0.20610   0.13521   0.43954   0.00000  Uiso   1.00
H150   H     0.18965   0.13965   0.45472   0.00000  Uiso   1.00
C151   C     0.20716   0.11485   0.41999   0.00000  Uiso   1.00
C152   C     0.23456   0.17418   0.45547   0.00000  Uiso   1.00
C153   C     0.22992   0.11563   0.40450   0.00000  Uiso   1.00
S154   S     0.25053   0.64130   0.91380   0.00000  Uiso   1.00
O155   O     0.21779   0.68004   0.97321   0.00000  Uiso   1.00
O156   O     0.25609   0.68625   0.95032   0.00000  Uiso   1.00
C157   C     0.22825   0.65054   0.93881   0.00000  Uiso   1.00
C158   C     0.20610   0.63521   0.93954   0.00000  Uiso   1.00
H159   H     0.18965   0.63965   0.95472   0.00000  Uiso   1.00
C160   C     0.20716   0.61485   0.91999   0.00000  Uiso   1.00
C161   C     0.23456   0.67418   0.95547   0.00000  Uiso   1.00
C162   C     0.22992   0.61563   0.90450   0.00000  Uiso   1.00
S163   S     0.75053   0.14130   0.91380   0.00000  Uiso   1.00
O164   O     0.71779   0.18004   0.97321   0.00000  Uiso   1.00
O165   O     0.75609   0.18625   0.95032   0.00000  Uiso   1.00
C166   C     0.72825   0.15054   0.93881   0.00000  Uiso   1.00
C167   C     0.70610   0.13521   0.93954   0.00000  Uiso   1.00
H168   H     0.68965   0.13965   0.95472   0.00000  Uiso   1.00
C169   C     0.70716   0.11485   0.91999   0.00000  Uiso   1.00
C170   C     0.73456   0.17418   0.95547   0.00000  Uiso   1.00
C171   C     0.72992   0.11563   0.90450   0.00000  Uiso   1.00
S172   S     0.75053   0.64130   0.41380   0.00000  Uiso   1.00
O173   O     0.71779   0.68004   0.47321   0.00000  Uiso   1.00
O174   O     0.75609   0.68625   0.45032   0.00000  Uiso   1.00
C175   C     0.72825   0.65054   0.43881   0.00000  Uiso   1.00
C176   C     0.70610   0.63521   0.43954   0.00000  Uiso   1.00
H177   H     0.68965   0.63965   0.45472   0.00000  Uiso   1.00
C178   C     0.70716   0.61485   0.41999   0.00000  Uiso   1.00
C179   C     0.73456   0.67418   0.45547   0.00000  Uiso   1.00
C180   C     0.72992   0.61563   0.40450   0.00000  Uiso   1.00
S181   S     0.25053   0.85870   0.58620   0.00000  Uiso   1.00
O182   O     0.21779   0.81996   0.52679   0.00000  Uiso   1.00
O183   O     0.25609   0.81375   0.54968   0.00000  Uiso   1.00
C184   C     0.22825   0.84946   0.56119   0.00000  Uiso   1.00
C185   C     0.20610   0.86479   0.56046   0.00000  Uiso   1.00
H186   H     0.18965   0.86035   0.54528   0.00000  Uiso   1.00
C187   C     0.20716   0.88515   0.58001   0.00000  Uiso   1.00
C188   C     0.23456   0.82582   0.54453   0.00000  Uiso   1.00
C189   C     0.22992   0.88437   0.59550   0.00000  Uiso   1.00
S190   S     0.25053   0.35870   0.08620   0.00000  Uiso   1.00
O191   O     0.21779   0.31996   0.02679   0.00000  Uiso   1.00
O192   O     0.25609   0.31375   0.04968   0.00000  Uiso   1.00
C193   C     0.22825   0.34946   0.06119   0.00000  Uiso   1.00
C194   C     0.20610   0.36479   0.06046   0.00000  Uiso   1.00
H195   H     0.18965   0.36035   0.04528   0.00000  Uiso   1.00
C196   C     0.20716   0.38515   0.08001   0.00000  Uiso   1.00
C197   C     0.23456   0.32582   0.04453   0.00000  Uiso   1.00
C198   C     0.22992   0.38437   0.09550   0.00000  Uiso   1.00
S199   S     0.75053   0.85870   0.08620   0.00000  Uiso   1.00
O200   O     0.71779   0.81996   0.02679   0.00000  Uiso   1.00
O201   O     0.75609   0.81375   0.04968   0.00000  Uiso   1.00
C202   C     0.72825   0.84946   0.06119   0.00000  Uiso   1.00
C203   C     0.70610   0.86479   0.06046   0.00000  Uiso   1.00
H204   H     0.68965   0.86035   0.04528   0.00000  Uiso   1.00
C205   C     0.70716   0.88515   0.08001   0.00000  Uiso   1.00
C206   C     0.73456   0.82582   0.04453   0.00000  Uiso   1.00
C207   C     0.72992   0.88437   0.09550   0.00000  Uiso   1.00
S208   S     0.75053   0.35870   0.58620   0.00000  Uiso   1.00
O209   O     0.71779   0.31996   0.52679   0.00000  Uiso   1.00
O210   O     0.75609   0.31375   0.54968   0.00000  Uiso   1.00
C211   C     0.72825   0.34946   0.56119   0.00000  Uiso   1.00
C212   C     0.70610   0.36479   0.56046   0.00000  Uiso   1.00
H213   H     0.68965   0.36035   0.54528   0.00000  Uiso   1.00
C214   C     0.70716   0.38515   0.58001   0.00000  Uiso   1.00
C215   C     0.73456   0.32582   0.54453   0.00000  Uiso   1.00
C216   C     0.72992   0.38437   0.59550   0.00000  Uiso   1.00
S217   S     0.74947   0.85870   0.41380   0.00000  Uiso   1.00
O218   O     0.78221   0.81996   0.47321   0.00000  Uiso   1.00
O219   O     0.74391   0.81375   0.45032   0.00000  Uiso   1.00
C220   C     0.77175   0.84946   0.43881   0.00000  Uiso   1.00
C221   C     0.79390   0.86479   0.43954   0.00000  Uiso   1.00
H222   H     0.81035   0.86035   0.45472   0.00000  Uiso   1.00
C223   C     0.79284   0.88515   0.41999   0.00000  Uiso   1.00
C224   C     0.76544   0.82582   0.45547   0.00000  Uiso   1.00
C225   C     0.77008   0.88437   0.40450   0.00000  Uiso   1.00
S226   S     0.74947   0.35870   0.91380   0.00000  Uiso   1.00
O227   O     0.78221   0.31996   0.97321   0.00000  Uiso   1.00
O228   O     0.74391   0.31375   0.95032   0.00000  Uiso   1.00
C229   C     0.77175   0.34946   0.93881   0.00000  Uiso   1.00
C230   C     0.79390   0.36479   0.93954   0.00000  Uiso   1.00
H231   H     0.81035   0.36035   0.95472   0.00000  Uiso   1.00
C232   C     0.79284   0.38515   0.91999   0.00000  Uiso   1.00
C233   C     0.76544   0.32582   0.95547   0.00000  Uiso   1.00
C234   C     0.77008   0.38437   0.90450   0.00000  Uiso   1.00
S235   S     0.24947   0.85870   0.91380   0.00000  Uiso   1.00
O236   O     0.28221   0.81996   0.97321   0.00000  Uiso   1.00
O237   O     0.24391   0.81375   0.95032   0.00000  Uiso   1.00
C238   C     0.27175   0.84946   0.93881   0.00000  Uiso   1.00
C239   C     0.29390   0.86479   0.93954   0.00000  Uiso   1.00
H240   H     0.31035   0.86035   0.95472   0.00000  Uiso   1.00
C241   C     0.29284   0.88515   0.91999   0.00000  Uiso   1.00
C242   C     0.26544   0.82582   0.95547   0.00000  Uiso   1.00
C243   C     0.27008   0.88437   0.90450   0.00000  Uiso   1.00
S244   S     0.24947   0.35870   0.41380   0.00000  Uiso   1.00
O245   O     0.28221   0.31996   0.47321   0.00000  Uiso   1.00
O246   O     0.24391   0.31375   0.45032   0.00000  Uiso   1.00
C247   C     0.27175   0.34946   0.43881   0.00000  Uiso   1.00
C248   C     0.29390   0.36479   0.43954   0.00000  Uiso   1.00
H249   H     0.31035   0.36035   0.45472   0.00000  Uiso   1.00
C250   C     0.29284   0.38515   0.41999   0.00000  Uiso   1.00
C251   C     0.26544   0.32582   0.45547   0.00000  Uiso   1.00
C252   C     0.27008   0.38437   0.40450   0.00000  Uiso   1.00
S253   S     0.74947   0.14130   0.58620   0.00000  Uiso   1.00
O254   O     0.78221   0.18004   0.52679   0.00000  Uiso   1.00
O255   O     0.74391   0.18625   0.54968   0.00000  Uiso   1.00
C256   C     0.77175   0.15054   0.56119   0.00000  Uiso   1.00
C257   C     0.79390   0.13521   0.56046   0.00000  Uiso   1.00
H258   H     0.81035   0.13965   0.54528   0.00000  Uiso   1.00
C259   C     0.79284   0.11485   0.58001   0.00000  Uiso   1.00
C260   C     0.76544   0.17418   0.54453   0.00000  Uiso   1.00
C261   C     0.77008   0.11563   0.59550   0.00000  Uiso   1.00
S262   S     0.74947   0.64130   0.08620   0.00000  Uiso   1.00
O263   O     0.78221   0.68004   0.02679   0.00000  Uiso   1.00
O264   O     0.74391   0.68625   0.04968   0.00000  Uiso   1.00
C265   C     0.77175   0.65054   0.06119   0.00000  Uiso   1.00
C266   C     0.79390   0.63521   0.06046   0.00000  Uiso   1.00
H267   H     0.81035   0.63965   0.04528   0.00000  Uiso   1.00
C268   C     0.79284   0.61485   0.08001   0.00000  Uiso   1.00
C269   C     0.76544   0.67418   0.04453   0.00000  Uiso   1.00
C270   C     0.77008   0.61563   0.09550   0.00000  Uiso   1.00
S271   S     0.24947   0.14130   0.08620   0.00000  Uiso   1.00
O272   O     0.28221   0.18004   0.02679   0.00000  Uiso   1.00
O273   O     0.24391   0.18625   0.04968   0.00000  Uiso   1.00
C274   C     0.27175   0.15054   0.06119   0.00000  Uiso   1.00
C275   C     0.29390   0.13521   0.06046   0.00000  Uiso   1.00
H276   H     0.31035   0.13965   0.04528   0.00000  Uiso   1.00
C277   C     0.29284   0.11485   0.08001   0.00000  Uiso   1.00
C278   C     0.26544   0.17418   0.04453   0.00000  Uiso   1.00
C279   C     0.27008   0.11563   0.09550   0.00000  Uiso   1.00
S280   S     0.24947   0.64130   0.58620   0.00000  Uiso   1.00
O281   O     0.28221   0.68004   0.52679   0.00000  Uiso   1.00
O282   O     0.24391   0.68625   0.54968   0.00000  Uiso   1.00
C283   C     0.27175   0.65054   0.56119   0.00000  Uiso   1.00
C284   C     0.29390   0.63521   0.56046   0.00000  Uiso   1.00
H285   H     0.31035   0.63965   0.54528   0.00000  Uiso   1.00
C286   C     0.29284   0.61485   0.58001   0.00000  Uiso   1.00
C287   C     0.26544   0.67418   0.54453   0.00000  Uiso   1.00
C288   C     0.27008   0.61563   0.59550   0.00000  Uiso   1.00
S289   S     0.41380   0.25053   0.14130   0.00000  Uiso   1.00
O290   O     0.47321   0.21779   0.18004   0.00000  Uiso   1.00
O291   O     0.45032   0.25609   0.18625   0.00000  Uiso   1.00
C292   C     0.43881   0.22825   0.15054   0.00000  Uiso   1.00
C293   C     0.43954   0.20610   0.13521   0.00000  Uiso   1.00
H294   H     0.45472   0.18965   0.13965   0.00000  Uiso   1.00
C295   C     0.41999   0.20716   0.11485   0.00000  Uiso   1.00
C296   C     0.45547   0.23456   0.17418   0.00000  Uiso   1.00
C297   C     0.40450   0.22992   0.11563   0.00000  Uiso   1.00
S298   S     0.41380   0.75053   0.64130   0.00000  Uiso   1.00
O299   O     0.47321   0.71779   0.68004   0.00000  Uiso   1.00
O300   O     0.45032   0.75609   0.68625   0.00000  Uiso   1.00
C301   C     0.43881   0.72825   0.65054   0.00000  Uiso   1.00
C302   C     0.43954   0.70610   0.63521   0.00000  Uiso   1.00
H303   H     0.45472   0.68965   0.63965   0.00000  Uiso   1.00
C304   C     0.41999   0.70716   0.61485   0.00000  Uiso   1.00
C305   C     0.45547   0.73456   0.67418   0.00000  Uiso   1.00
C306   C     0.40450   0.72992   0.61563   0.00000  Uiso   1.00
S307   S     0.91380   0.25053   0.64130   0.00000  Uiso   1.00
O308   O     0.97321   0.21779   0.68004   0.00000  Uiso   1.00
O309   O     0.95032   0.25609   0.68625   0.00000  Uiso   1.00
C310   C     0.93881   0.22825   0.65054   0.00000  Uiso   1.00
C311   C     0.93954   0.20610   0.63521   0.00000  Uiso   1.00
H312   H     0.95472   0.18965   0.63965   0.00000  Uiso   1.00
C313   C     0.91999   0.20716   0.61485   0.00000  Uiso   1.00
C314   C     0.95547   0.23456   0.67418   0.00000  Uiso   1.00
C315   C     0.90450   0.22992   0.61563   0.00000  Uiso   1.00
S316   S     0.91380   0.75053   0.14130   0.00000  Uiso   1.00
O317   O     0.97321   0.71779   0.18004   0.00000  Uiso   1.00
O318   O     0.95032   0.75609   0.18625   0.00000  Uiso   1.00
C319   C     0.93881   0.72825   0.15054   0.00000  Uiso   1.00
C320   C     0.93954   0.70610   0.13521   0.00000  Uiso   1.00
H321   H     0.95472   0.68965   0.13965   0.00000  Uiso   1.00
C322   C     0.91999   0.70716   0.11485   0.00000  Uiso   1.00
C323   C     0.95547   0.73456   0.17418   0.00000  Uiso   1.00
C324   C     0.90450   0.72992   0.11563   0.00000  Uiso   1.00
S325   S     0.58620   0.25053   0.85870   0.00000  Uiso   1.00
O326   O     0.52679   0.21779   0.81996   0.00000  Uiso   1.00
O327   O     0.54968   0.25609   0.81375   0.00000  Uiso   1.00
C328   C     0.56119   0.22825   0.84946   0.00000  Uiso   1.00
C329   C     0.56046   0.20610   0.86479   0.00000  Uiso   1.00
H330   H     0.54528   0.18965   0.86035   0.00000  Uiso   1.00
C331   C     0.58001   0.20716   0.88515   0.00000  Uiso   1.00
C332   C     0.54453   0.23456   0.82582   0.00000  Uiso   1.00
C333   C     0.59550   0.22992   0.88437   0.00000  Uiso   1.00
S334   S     0.58620   0.75053   0.35870   0.00000  Uiso   1.00
O335   O     0.52679   0.71779   0.31996   0.00000  Uiso   1.00
O336   O     0.54968   0.75609   0.31375   0.00000  Uiso   1.00
C337   C     0.56119   0.72825   0.34946   0.00000  Uiso   1.00
C338   C     0.56046   0.70610   0.36479   0.00000  Uiso   1.00
H339   H     0.54528   0.68965   0.36035   0.00000  Uiso   1.00
C340   C     0.58001   0.70716   0.38515   0.00000  Uiso   1.00
C341   C     0.54453   0.73456   0.32582   0.00000  Uiso   1.00
C342   C     0.59550   0.72992   0.38437   0.00000  Uiso   1.00
S343   S     0.08620   0.25053   0.35870   0.00000  Uiso   1.00
O344   O     0.02679   0.21779   0.31996   0.00000  Uiso   1.00
O345   O     0.04968   0.25609   0.31375   0.00000  Uiso   1.00
C346   C     0.06119   0.22825   0.34946   0.00000  Uiso   1.00
C347   C     0.06046   0.20610   0.36479   0.00000  Uiso   1.00
H348   H     0.04528   0.18965   0.36035   0.00000  Uiso   1.00
C349   C     0.08001   0.20716   0.38515   0.00000  Uiso   1.00
C350   C     0.04453   0.23456   0.32582   0.00000  Uiso   1.00
C351   C     0.09550   0.22992   0.38437   0.00000  Uiso   1.00
S352   S     0.08620   0.75053   0.85870   0.00000  Uiso   1.00
O353   O     0.02679   0.71779   0.81996   0.00000  Uiso   1.00
O354   O     0.04968   0.75609   0.81375   0.00000  Uiso   1.00
C355   C     0.06119   0.72825   0.84946   0.00000  Uiso   1.00
C356   C     0.06046   0.70610   0.86479   0.00000  Uiso   1.00
H357   H     0.04528   0.68965   0.86035   0.00000  Uiso   1.00
C358   C     0.08001   0.70716   0.88515   0.00000  Uiso   1.00
C359   C     0.04453   0.73456   0.82582   0.00000  Uiso   1.00
C360   C     0.09550   0.72992   0.88437   0.00000  Uiso   1.00
S361   S     0.41380   0.74947   0.85870   0.00000  Uiso   1.00
O362   O     0.47321   0.78221   0.81996   0.00000  Uiso   1.00
O363   O     0.45032   0.74391   0.81375   0.00000  Uiso   1.00
C364   C     0.43881   0.77175   0.84946   0.00000  Uiso   1.00
C365   C     0.43954   0.79390   0.86479   0.00000  Uiso   1.00
H366   H     0.45472   0.81035   0.86035   0.00000  Uiso   1.00
C367   C     0.41999   0.79284   0.88515   0.00000  Uiso   1.00
C368   C     0.45547   0.76544   0.82582   0.00000  Uiso   1.00
C369   C     0.40450   0.77008   0.88437   0.00000  Uiso   1.00
S370   S     0.41380   0.24947   0.35870   0.00000  Uiso   1.00
O371   O     0.47321   0.28221   0.31996   0.00000  Uiso   1.00
O372   O     0.45032   0.24391   0.31375   0.00000  Uiso   1.00
C373   C     0.43881   0.27175   0.34946   0.00000  Uiso   1.00
C374   C     0.43954   0.29390   0.36479   0.00000  Uiso   1.00
H375   H     0.45472   0.31035   0.36035   0.00000  Uiso   1.00
C376   C     0.41999   0.29284   0.38515   0.00000  Uiso   1.00
C377   C     0.45547   0.26544   0.32582   0.00000  Uiso   1.00
C378   C     0.40450   0.27008   0.38437   0.00000  Uiso   1.00
S379   S     0.91380   0.74947   0.35870   0.00000  Uiso   1.00
O380   O     0.97321   0.78221   0.31996   0.00000  Uiso   1.00
O381   O     0.95032   0.74391   0.31375   0.00000  Uiso   1.00
C382   C     0.93881   0.77175   0.34946   0.00000  Uiso   1.00
C383   C     0.93954   0.79390   0.36479   0.00000  Uiso   1.00
H384   H     0.95472   0.81035   0.36035   0.00000  Uiso   1.00
C385   C     0.91999   0.79284   0.38515   0.00000  Uiso   1.00
C386   C     0.95547   0.76544   0.32582   0.00000  Uiso   1.00
C387   C     0.90450   0.77008   0.38437   0.00000  Uiso   1.00
S388   S     0.91380   0.24947   0.85870   0.00000  Uiso   1.00
O389   O     0.97321   0.28221   0.81996   0.00000  Uiso   1.00
O390   O     0.95032   0.24391   0.81375   0.00000  Uiso   1.00
C391   C     0.93881   0.27175   0.84946   0.00000  Uiso   1.00
C392   C     0.93954   0.29390   0.86479   0.00000  Uiso   1.00
H393   H     0.95472   0.31035   0.86035   0.00000  Uiso   1.00
C394   C     0.91999   0.29284   0.88515   0.00000  Uiso   1.00
C395   C     0.95547   0.26544   0.82582   0.00000  Uiso   1.00
C396   C     0.90450   0.27008   0.88437   0.00000  Uiso   1.00
S397   S     0.58620   0.74947   0.14130   0.00000  Uiso   1.00
O398   O     0.52679   0.78221   0.18004   0.00000  Uiso   1.00
O399   O     0.54968   0.74391   0.18625   0.00000  Uiso   1.00
C400   C     0.56119   0.77175   0.15054   0.00000  Uiso   1.00
C401   C     0.56046   0.79390   0.13521   0.00000  Uiso   1.00
H402   H     0.54528   0.81035   0.13965   0.00000  Uiso   1.00
C403   C     0.58001   0.79284   0.11485   0.00000  Uiso   1.00
C404   C     0.54453   0.76544   0.17418   0.00000  Uiso   1.00
C405   C     0.59550   0.77008   0.11563   0.00000  Uiso   1.00
S406   S     0.58620   0.24947   0.64130   0.00000  Uiso   1.00
O407   O     0.52679   0.28221   0.68004   0.00000  Uiso   1.00
O408   O     0.54968   0.24391   0.68625   0.00000  Uiso   1.00
C409   C     0.56119   0.27175   0.65054   0.00000  Uiso   1.00
C410   C     0.56046   0.29390   0.63521   0.00000  Uiso   1.00
H411   H     0.54528   0.31035   0.63965   0.00000  Uiso   1.00
C412   C     0.58001   0.29284   0.61485   0.00000  Uiso   1.00
C413   C     0.54453   0.26544   0.67418   0.00000  Uiso   1.00
C414   C     0.59550   0.27008   0.61563   0.00000  Uiso   1.00
S415   S     0.08620   0.74947   0.64130   0.00000  Uiso   1.00
O416   O     0.02679   0.78221   0.68004   0.00000  Uiso   1.00
O417   O     0.04968   0.74391   0.68625   0.00000  Uiso   1.00
C418   C     0.06119   0.77175   0.65054   0.00000  Uiso   1.00
C419   C     0.06046   0.79390   0.63521   0.00000  Uiso   1.00
H420   H     0.04528   0.81035   0.63965   0.00000  Uiso   1.00
C421   C     0.08001   0.79284   0.61485   0.00000  Uiso   1.00
C422   C     0.04453   0.76544   0.67418   0.00000  Uiso   1.00
C423   C     0.09550   0.77008   0.61563   0.00000  Uiso   1.00
S424   S     0.08620   0.24947   0.14130   0.00000  Uiso   1.00
O425   O     0.02679   0.28221   0.18004   0.00000  Uiso   1.00
O426   O     0.04968   0.24391   0.18625   0.00000  Uiso   1.00
C427   C     0.06119   0.27175   0.15054   0.00000  Uiso   1.00
C428   C     0.06046   0.29390   0.13521   0.00000  Uiso   1.00
H429   H     0.04528   0.31035   0.13965   0.00000  Uiso   1.00
C430   C     0.08001   0.29284   0.11485   0.00000  Uiso   1.00
C431   C     0.04453   0.26544   0.17418   0.00000  Uiso   1.00
C432   C     0.09550   0.27008   0.11563   0.00000  Uiso   1.00
S433   S     0.41380   0.14130   0.74947   0.00000  Uiso   1.00
O434   O     0.47321   0.18004   0.78221   0.00000  Uiso   1.00
O435   O     0.45032   0.18625   0.74391   0.00000  Uiso   1.00
C436   C     0.43881   0.15054   0.77175   0.00000  Uiso   1.00
C437   C     0.43954   0.13521   0.79390   0.00000  Uiso   1.00
H438   H     0.45472   0.13965   0.81035   0.00000  Uiso   1.00
C439   C     0.41999   0.11485   0.79284   0.00000  Uiso   1.00
C440   C     0.45547   0.17418   0.76544   0.00000  Uiso   1.00
C441   C     0.40450   0.11563   0.77008   0.00000  Uiso   1.00
S442   S     0.41380   0.64130   0.24947   0.00000  Uiso   1.00
O443   O     0.47321   0.68004   0.28221   0.00000  Uiso   1.00
O444   O     0.45032   0.68625   0.24391   0.00000  Uiso   1.00
C445   C     0.43881   0.65054   0.27175   0.00000  Uiso   1.00
C446   C     0.43954   0.63521   0.29390   0.00000  Uiso   1.00
H447   H     0.45472   0.63965   0.31035   0.00000  Uiso   1.00
C448   C     0.41999   0.61485   0.29284   0.00000  Uiso   1.00
C449   C     0.45547   0.67418   0.26544   0.00000  Uiso   1.00
C450   C     0.40450   0.61563   0.27008   0.00000  Uiso   1.00
S451   S     0.91380   0.14130   0.24947   0.00000  Uiso   1.00
O452   O     0.97321   0.18004   0.28221   0.00000  Uiso   1.00
O453   O     0.95032   0.18625   0.24391   0.00000  Uiso   1.00
C454   C     0.93881   0.15054   0.27175   0.00000  Uiso   1.00
C455   C     0.93954   0.13521   0.29390   0.00000  Uiso   1.00
H456   H     0.95472   0.13965   0.31035   0.00000  Uiso   1.00
C457   C     0.91999   0.11485   0.29284   0.00000  Uiso   1.00
C458   C     0.95547   0.17418   0.26544   0.00000  Uiso   1.00
C459   C     0.90450   0.11563   0.27008   0.00000  Uiso   1.00
S460   S     0.91380   0.64130   0.74947   0.00000  Uiso   1.00
O461   O     0.97321   0.68004   0.78221   0.00000  Uiso   1.00
O462   O     0.95032   0.68625   0.74391   0.00000  Uiso   1.00
C463   C     0.93881   0.65054   0.77175   0.00000  Uiso   1.00
C464   C     0.93954   0.63521   0.79390   0.00000  Uiso   1.00
H465   H     0.95472   0.63965   0.81035   0.00000  Uiso   1.00
C466   C     0.91999   0.61485   0.79284   0.00000  Uiso   1.00
C467   C     0.95547   0.67418   0.76544   0.00000  Uiso   1.00
C468   C     0.90450   0.61563   0.77008   0.00000  Uiso   1.00
S469   S     0.58620   0.85870   0.74947   0.00000  Uiso   1.00
O470   O     0.52679   0.81996   0.78221   0.00000  Uiso   1.00
O471   O     0.54968   0.81375   0.74391   0.00000  Uiso   1.00
C472   C     0.56119   0.84946   0.77175   0.00000  Uiso   1.00
C473   C     0.56046   0.86479   0.79390   0.00000  Uiso   1.00
H474   H     0.54528   0.86035   0.81035   0.00000  Uiso   1.00
C475   C     0.58001   0.88515   0.79284   0.00000  Uiso   1.00
C476   C     0.54453   0.82582   0.76544   0.00000  Uiso   1.00
C477   C     0.59550   0.88437   0.77008   0.00000  Uiso   1.00
S478   S     0.58620   0.35870   0.24947   0.00000  Uiso   1.00
O479   O     0.52679   0.31996   0.28221   0.00000  Uiso   1.00
O480   O     0.54968   0.31375   0.24391   0.00000  Uiso   1.00
C481   C     0.56119   0.34946   0.27175   0.00000  Uiso   1.00
C482   C     0.56046   0.36479   0.29390   0.00000  Uiso   1.00
H483   H     0.54528   0.36035   0.31035   0.00000  Uiso   1.00
C484   C     0.58001   0.38515   0.29284   0.00000  Uiso   1.00
C485   C     0.54453   0.32582   0.26544   0.00000  Uiso   1.00
C486   C     0.59550   0.38437   0.27008   0.00000  Uiso   1.00
S487   S     0.08620   0.85870   0.24947   0.00000  Uiso   1.00
O488   O     0.02679   0.81996   0.28221   0.00000  Uiso   1.00
O489   O     0.04968   0.81375   0.24391   0.00000  Uiso   1.00
C490   C     0.06119   0.84946   0.27175   0.00000  Uiso   1.00
C491   C     0.06046   0.86479   0.29390   0.00000  Uiso   1.00
H492   H     0.04528   0.86035   0.31035   0.00000  Uiso   1.00
C493   C     0.08001   0.88515   0.29284   0.00000  Uiso   1.00
C494   C     0.04453   0.82582   0.26544   0.00000  Uiso   1.00
C495   C     0.09550   0.88437   0.27008   0.00000  Uiso   1.00
S496   S     0.08620   0.35870   0.74947   0.00000  Uiso   1.00
O497   O     0.02679   0.31996   0.78221   0.00000  Uiso   1.00
O498   O     0.04968   0.31375   0.74391   0.00000  Uiso   1.00
C499   C     0.06119   0.34946   0.77175   0.00000  Uiso   1.00
C500   C     0.06046   0.36479   0.79390   0.00000  Uiso   1.00
H501   H     0.04528   0.36035   0.81035   0.00000  Uiso   1.00
C502   C     0.08001   0.38515   0.79284   0.00000  Uiso   1.00
C503   C     0.04453   0.32582   0.76544   0.00000  Uiso   1.00
C504   C     0.09550   0.38437   0.77008   0.00000  Uiso   1.00
S505   S     0.41380   0.85870   0.25053   0.00000  Uiso   1.00
O506   O     0.47321   0.81996   0.21779   0.00000  Uiso   1.00
O507   O     0.45032   0.81375   0.25609   0.00000  Uiso   1.00
C508   C     0.43881   0.84946   0.22825   0.00000  Uiso   1.00
C509   C     0.43954   0.86479   0.20610   0.00000  Uiso   1.00
H510   H     0.45472   0.86035   0.18965   0.00000  Uiso   1.00
C511   C     0.41999   0.88515   0.20716   0.00000  Uiso   1.00
C512   C     0.45547   0.82582   0.23456   0.00000  Uiso   1.00
C513   C     0.40450   0.88437   0.22992   0.00000  Uiso   1.00
S514   S     0.41380   0.35870   0.75053   0.00000  Uiso   1.00
O515   O     0.47321   0.31996   0.71779   0.00000  Uiso   1.00
O516   O     0.45032   0.31375   0.75609   0.00000  Uiso   1.00
C517   C     0.43881   0.34946   0.72825   0.00000  Uiso   1.00
C518   C     0.43954   0.36479   0.70610   0.00000  Uiso   1.00
H519   H     0.45472   0.36035   0.68965   0.00000  Uiso   1.00
C520   C     0.41999   0.38515   0.70716   0.00000  Uiso   1.00
C521   C     0.45547   0.32582   0.73456   0.00000  Uiso   1.00
C522   C     0.40450   0.38437   0.72992   0.00000  Uiso   1.00
S523   S     0.91380   0.85870   0.75053   0.00000  Uiso   1.00
O524   O     0.97321   0.81996   0.71779   0.00000  Uiso   1.00
O525   O     0.95032   0.81375   0.75609   0.00000  Uiso   1.00
C526   C     0.93881   0.84946   0.72825   0.00000  Uiso   1.00
C527   C     0.93954   0.86479   0.70610   0.00000  Uiso   1.00
H528   H     0.95472   0.86035   0.68965   0.00000  Uiso   1.00
C529   C     0.91999   0.88515   0.70716   0.00000  Uiso   1.00
C530   C     0.95547   0.82582   0.73456   0.00000  Uiso   1.00
C531   C     0.90450   0.88437   0.72992   0.00000  Uiso   1.00
S532   S     0.91380   0.35870   0.25053   0.00000  Uiso   1.00
O533   O     0.97321   0.31996   0.21779   0.00000  Uiso   1.00
O534   O     0.95032   0.31375   0.25609   0.00000  Uiso   1.00
C535   C     0.93881   0.34946   0.22825   0.00000  Uiso   1.00
C536   C     0.93954   0.36479   0.20610   0.00000  Uiso   1.00
H537   H     0.95472   0.36035   0.18965   0.00000  Uiso   1.00
C538   C     0.91999   0.38515   0.20716   0.00000  Uiso   1.00
C539   C     0.95547   0.32582   0.23456   0.00000  Uiso   1.00
C540   C     0.90450   0.38437   0.22992   0.00000  Uiso   1.00
S541   S     0.58620   0.14130   0.25053   0.00000  Uiso   1.00
O542   O     0.52679   0.18004   0.21779   0.00000  Uiso   1.00
O543   O     0.54968   0.18625   0.25609   0.00000  Uiso   1.00
C544   C     0.56119   0.15054   0.22825   0.00000  Uiso   1.00
C545   C     0.56046   0.13521   0.20610   0.00000  Uiso   1.00
H546   H     0.54528   0.13965   0.18965   0.00000  Uiso   1.00
C547   C     0.58001   0.11485   0.20716   0.00000  Uiso   1.00
C548   C     0.54453   0.17418   0.23456   0.00000  Uiso   1.00
C549   C     0.59550   0.11563   0.22992   0.00000  Uiso   1.00
S550   S     0.58620   0.64130   0.75053   0.00000  Uiso   1.00
O551   O     0.52679   0.68004   0.71779   0.00000  Uiso   1.00
O552   O     0.54968   0.68625   0.75609   0.00000  Uiso   1.00
C553   C     0.56119   0.65054   0.72825   0.00000  Uiso   1.00
C554   C     0.56046   0.63521   0.70610   0.00000  Uiso   1.00
H555   H     0.54528   0.63965   0.68965   0.00000  Uiso   1.00
C556   C     0.58001   0.61485   0.70716   0.00000  Uiso   1.00
C557   C     0.54453   0.67418   0.73456   0.00000  Uiso   1.00
C558   C     0.59550   0.61563   0.72992   0.00000  Uiso   1.00
S559   S     0.08620   0.14130   0.75053   0.00000  Uiso   1.00
O560   O     0.02679   0.18004   0.71779   0.00000  Uiso   1.00
O561   O     0.04968   0.18625   0.75609   0.00000  Uiso   1.00
C562   C     0.06119   0.15054   0.72825   0.00000  Uiso   1.00
C563   C     0.06046   0.13521   0.70610   0.00000  Uiso   1.00
H564   H     0.04528   0.13965   0.68965   0.00000  Uiso   1.00
C565   C     0.08001   0.11485   0.70716   0.00000  Uiso   1.00
C566   C     0.04453   0.17418   0.73456   0.00000  Uiso   1.00
C567   C     0.09550   0.11563   0.72992   0.00000  Uiso   1.00
S568   S     0.08620   0.64130   0.25053   0.00000  Uiso   1.00
O569   O     0.02679   0.68004   0.21779   0.00000  Uiso   1.00
O570   O     0.04968   0.68625   0.25609   0.00000  Uiso   1.00
C571   C     0.06119   0.65054   0.22825   0.00000  Uiso   1.00
C572   C     0.06046   0.63521   0.20610   0.00000  Uiso   1.00
H573   H     0.04528   0.63965   0.18965   0.00000  Uiso   1.00
C574   C     0.08001   0.61485   0.20716   0.00000  Uiso   1.00
C575   C     0.04453   0.67418   0.23456   0.00000  Uiso   1.00
C576   C     0.09550   0.61563   0.22992   0.00000  Uiso   1.00
S577   S     0.14130   0.25053   0.58620   0.00000  Uiso   1.00
O578   O     0.18004   0.21779   0.52679   0.00000  Uiso   1.00
O579   O     0.18625   0.25609   0.54968   0.00000  Uiso   1.00
C580   C     0.15054   0.22825   0.56119   0.00000  Uiso   1.00
C581   C     0.13521   0.20610   0.56046   0.00000  Uiso   1.00
H582   H     0.13965   0.18965   0.54528   0.00000  Uiso   1.00
C583   C     0.11485   0.20716   0.58001   0.00000  Uiso   1.00
C584   C     0.17418   0.23456   0.54453   0.00000  Uiso   1.00
C585   C     0.11563   0.22992   0.59550   0.00000  Uiso   1.00
S586   S     0.14130   0.75053   0.08620   0.00000  Uiso   1.00
O587   O     0.18004   0.71779   0.02679   0.00000  Uiso   1.00
O588   O     0.18625   0.75609   0.04968   0.00000  Uiso   1.00
C589   C     0.15054   0.72825   0.06119   0.00000  Uiso   1.00
C590   C     0.13521   0.70610   0.06046   0.00000  Uiso   1.00
H591   H     0.13965   0.68965   0.04528   0.00000  Uiso   1.00
C592   C     0.11485   0.70716   0.08001   0.00000  Uiso   1.00
C593   C     0.17418   0.73456   0.04453   0.00000  Uiso   1.00
C594   C     0.11563   0.72992   0.09550   0.00000  Uiso   1.00
S595   S     0.64130   0.25053   0.08620   0.00000  Uiso   1.00
O596   O     0.68004   0.21779   0.02679   0.00000  Uiso   1.00
O597   O     0.68625   0.25609   0.04968   0.00000  Uiso   1.00
C598   C     0.65054   0.22825   0.06119   0.00000  Uiso   1.00
C599   C     0.63521   0.20610   0.06046   0.00000  Uiso   1.00
H600   H     0.63965   0.18965   0.04528   0.00000  Uiso   1.00
C601   C     0.61485   0.20716   0.08001   0.00000  Uiso   1.00
C602   C     0.67418   0.23456   0.04453   0.00000  Uiso   1.00
C603   C     0.61563   0.22992   0.09550   0.00000  Uiso   1.00
S604   S     0.64130   0.75053   0.58620   0.00000  Uiso   1.00
O605   O     0.68004   0.71779   0.52679   0.00000  Uiso   1.00
O606   O     0.68625   0.75609   0.54968   0.00000  Uiso   1.00
C607   C     0.65054   0.72825   0.56119   0.00000  Uiso   1.00
C608   C     0.63521   0.70610   0.56046   0.00000  Uiso   1.00
H609   H     0.63965   0.68965   0.54528   0.00000  Uiso   1.00
C610   C     0.61485   0.70716   0.58001   0.00000  Uiso   1.00
C611   C     0.67418   0.73456   0.54453   0.00000  Uiso   1.00
C612   C     0.61563   0.72992   0.59550   0.00000  Uiso   1.00
S613   S     0.85870   0.25053   0.41380   0.00000  Uiso   1.00
O614   O     0.81996   0.21779   0.47321   0.00000  Uiso   1.00
O615   O     0.81375   0.25609   0.45032   0.00000  Uiso   1.00
C616   C     0.84946   0.22825   0.43881   0.00000  Uiso   1.00
C617   C     0.86479   0.20610   0.43954   0.00000  Uiso   1.00
H618   H     0.86035   0.18965   0.45472   0.00000  Uiso   1.00
C619   C     0.88515   0.20716   0.41999   0.00000  Uiso   1.00
C620   C     0.82582   0.23456   0.45547   0.00000  Uiso   1.00
C621   C     0.88437   0.22992   0.40450   0.00000  Uiso   1.00
S622   S     0.85870   0.75053   0.91380   0.00000  Uiso   1.00
O623   O     0.81996   0.71779   0.97321   0.00000  Uiso   1.00
O624   O     0.81375   0.75609   0.95032   0.00000  Uiso   1.00
C625   C     0.84946   0.72825   0.93881   0.00000  Uiso   1.00
C626   C     0.86479   0.70610   0.93954   0.00000  Uiso   1.00
H627   H     0.86035   0.68965   0.95472   0.00000  Uiso   1.00
C628   C     0.88515   0.70716   0.91999   0.00000  Uiso   1.00
C629   C     0.82582   0.73456   0.95547   0.00000  Uiso   1.00
C630   C     0.88437   0.72992   0.90450   0.00000  Uiso   1.00
S631   S     0.35870   0.25053   0.91380   0.00000  Uiso   1.00
O632   O     0.31996   0.21779   0.97321   0.00000  Uiso   1.00
O633   O     0.31375   0.25609   0.95032   0.00000  Uiso   1.00
C634   C     0.34946   0.22825   0.93881   0.00000  Uiso   1.00
C635   C     0.36479   0.20610   0.93954   0.00000  Uiso   1.00
H636   H     0.36035   0.18965   0.95472   0.00000  Uiso   1.00
C637   C     0.38515   0.20716   0.91999   0.00000  Uiso   1.00
C638   C     0.32582   0.23456   0.95547   0.00000  Uiso   1.00
C639   C     0.38437   0.22992   0.90450   0.00000  Uiso   1.00
S640   S     0.35870   0.75053   0.41380   0.00000  Uiso   1.00
O641   O     0.31996   0.71779   0.47321   0.00000  Uiso   1.00
O642   O     0.31375   0.75609   0.45032   0.00000  Uiso   1.00
C643   C     0.34946   0.72825   0.43881   0.00000  Uiso   1.00
C644   C     0.36479   0.70610   0.43954   0.00000  Uiso   1.00
H645   H     0.36035   0.68965   0.45472   0.00000  Uiso   1.00
C646   C     0.38515   0.70716   0.41999   0.00000  Uiso   1.00
C647   C     0.32582   0.73456   0.45547   0.00000  Uiso   1.00
C648   C     0.38437   0.72992   0.40450   0.00000  Uiso   1.00
S649   S     0.85870   0.74947   0.58620   0.00000  Uiso   1.00
O650   O     0.81996   0.78221   0.52679   0.00000  Uiso   1.00
O651   O     0.81375   0.74391   0.54968   0.00000  Uiso   1.00
C652   C     0.84946   0.77175   0.56119   0.00000  Uiso   1.00
C653   C     0.86479   0.79390   0.56046   0.00000  Uiso   1.00
H654   H     0.86035   0.81035   0.54528   0.00000  Uiso   1.00
C655   C     0.88515   0.79284   0.58001   0.00000  Uiso   1.00
C656   C     0.82582   0.76544   0.54453   0.00000  Uiso   1.00
C657   C     0.88437   0.77008   0.59550   0.00000  Uiso   1.00
S658   S     0.85870   0.24947   0.08620   0.00000  Uiso   1.00
O659   O     0.81996   0.28221   0.02679   0.00000  Uiso   1.00
O660   O     0.81375   0.24391   0.04968   0.00000  Uiso   1.00
C661   C     0.84946   0.27175   0.06119   0.00000  Uiso   1.00
C662   C     0.86479   0.29390   0.06046   0.00000  Uiso   1.00
H663   H     0.86035   0.31035   0.04528   0.00000  Uiso   1.00
C664   C     0.88515   0.29284   0.08001   0.00000  Uiso   1.00
C665   C     0.82582   0.26544   0.04453   0.00000  Uiso   1.00
C666   C     0.88437   0.27008   0.09550   0.00000  Uiso   1.00
S667   S     0.35870   0.74947   0.08620   0.00000  Uiso   1.00
O668   O     0.31996   0.78221   0.02679   0.00000  Uiso   1.00
O669   O     0.31375   0.74391   0.04968   0.00000  Uiso   1.00
C670   C     0.34946   0.77175   0.06119   0.00000  Uiso   1.00
C671   C     0.36479   0.79390   0.06046   0.00000  Uiso   1.00
H672   H     0.36035   0.81035   0.04528   0.00000  Uiso   1.00
C673   C     0.38515   0.79284   0.08001   0.00000  Uiso   1.00
C674   C     0.32582   0.76544   0.04453   0.00000  Uiso   1.00
C675   C     0.38437   0.77008   0.09550   0.00000  Uiso   1.00
S676   S     0.35870   0.24947   0.58620   0.00000  Uiso   1.00
O677   O     0.31996   0.28221   0.52679   0.00000  Uiso   1.00
O678   O     0.31375   0.24391   0.54968   0.00000  Uiso   1.00
C679   C     0.34946   0.27175   0.56119   0.00000  Uiso   1.00
C680   C     0.36479   0.29390   0.56046   0.00000  Uiso   1.00
H681   H     0.36035   0.31035   0.54528   0.00000  Uiso   1.00
C682   C     0.38515   0.29284   0.58001   0.00000  Uiso   1.00
C683   C     0.32582   0.26544   0.54453   0.00000  Uiso   1.00
C684   C     0.38437   0.27008   0.59550   0.00000  Uiso   1.00
S685   S     0.14130   0.74947   0.41380   0.00000  Uiso   1.00
O686   O     0.18004   0.78221   0.47321   0.00000  Uiso   1.00
O687   O     0.18625   0.74391   0.45032   0.00000  Uiso   1.00
C688   C     0.15054   0.77175   0.43881   0.00000  Uiso   1.00
C689   C     0.13521   0.79390   0.43954   0.00000  Uiso   1.00
H690   H     0.13965   0.81035   0.45472   0.00000  Uiso   1.00
C691   C     0.11485   0.79284   0.41999   0.00000  Uiso   1.00
C692   C     0.17418   0.76544   0.45547   0.00000  Uiso   1.00
C693   C     0.11563   0.77008   0.40450   0.00000  Uiso   1.00
S694   S     0.14130   0.24947   0.91380   0.00000  Uiso   1.00
O695   O     0.18004   0.28221   0.97321   0.00000  Uiso   1.00
O696   O     0.18625   0.24391   0.95032   0.00000  Uiso   1.00
C697   C     0.15054   0.27175   0.93881   0.00000  Uiso   1.00
C698   C     0.13521   0.29390   0.93954   0.00000  Uiso   1.00
H699   H     0.13965   0.31035   0.95472   0.00000  Uiso   1.00
C700   C     0.11485   0.29284   0.91999   0.00000  Uiso   1.00
C701   C     0.17418   0.26544   0.95547   0.00000  Uiso   1.00
C702   C     0.11563   0.27008   0.90450   0.00000  Uiso   1.00
S703   S     0.64130   0.74947   0.91380   0.00000  Uiso   1.00
O704   O     0.68004   0.78221   0.97321   0.00000  Uiso   1.00
O705   O     0.68625   0.74391   0.95032   0.00000  Uiso   1.00
C706   C     0.65054   0.77175   0.93881   0.00000  Uiso   1.00
C707   C     0.63521   0.79390   0.93954   0.00000  Uiso   1.00
H708   H     0.63965   0.81035   0.95472   0.00000  Uiso   1.00
C709   C     0.61485   0.79284   0.91999   0.00000  Uiso   1.00
C710   C     0.67418   0.76544   0.95547   0.00000  Uiso   1.00
C711   C     0.61563   0.77008   0.90450   0.00000  Uiso   1.00
S712   S     0.64130   0.24947   0.41380   0.00000  Uiso   1.00
O713   O     0.68004   0.28221   0.47321   0.00000  Uiso   1.00
O714   O     0.68625   0.24391   0.45032   0.00000  Uiso   1.00
C715   C     0.65054   0.27175   0.43881   0.00000  Uiso   1.00
C716   C     0.63521   0.29390   0.43954   0.00000  Uiso   1.00
H717   H     0.63965   0.31035   0.45472   0.00000  Uiso   1.00
C718   C     0.61485   0.29284   0.41999   0.00000  Uiso   1.00
C719   C     0.67418   0.26544   0.45547   0.00000  Uiso   1.00
C720   C     0.61563   0.27008   0.40450   0.00000  Uiso   1.00
S721   S     0.25053   0.41380   0.85870   0.00000  Uiso   1.00
O722   O     0.21779   0.47321   0.81996   0.00000  Uiso   1.00
O723   O     0.25609   0.45032   0.81375   0.00000  Uiso   1.00
C724   C     0.22825   0.43881   0.84946   0.00000  Uiso   1.00
C725   C     0.20610   0.43954   0.86479   0.00000  Uiso   1.00
H726   H     0.18965   0.45472   0.86035   0.00000  Uiso   1.00
C727   C     0.20716   0.41999   0.88515   0.00000  Uiso   1.00
C728   C     0.23456   0.45547   0.82582   0.00000  Uiso   1.00
C729   C     0.22992   0.40450   0.88437   0.00000  Uiso   1.00
S730   S     0.25053   0.91380   0.35870   0.00000  Uiso   1.00
O731   O     0.21779   0.97321   0.31996   0.00000  Uiso   1.00
O732   O     0.25609   0.95032   0.31375   0.00000  Uiso   1.00
C733   C     0.22825   0.93881   0.34946   0.00000  Uiso   1.00
C734   C     0.20610   0.93954   0.36479   0.00000  Uiso   1.00
H735   H     0.18965   0.95472   0.36035   0.00000  Uiso   1.00
C736   C     0.20716   0.91999   0.38515   0.00000  Uiso   1.00
C737   C     0.23456   0.95547   0.32582   0.00000  Uiso   1.00
C738   C     0.22992   0.90450   0.38437   0.00000  Uiso   1.00
S739   S     0.75053   0.41380   0.35870   0.00000  Uiso   1.00
O740   O     0.71779   0.47321   0.31996   0.00000  Uiso   1.00
O741   O     0.75609   0.45032   0.31375   0.00000  Uiso   1.00
C742   C     0.72825   0.43881   0.34946   0.00000  Uiso   1.00
C743   C     0.70610   0.43954   0.36479   0.00000  Uiso   1.00
H744   H     0.68965   0.45472   0.36035   0.00000  Uiso   1.00
C745   C     0.70716   0.41999   0.38515   0.00000  Uiso   1.00
C746   C     0.73456   0.45547   0.32582   0.00000  Uiso   1.00
C747   C     0.72992   0.40450   0.38437   0.00000  Uiso   1.00
S748   S     0.75053   0.91380   0.85870   0.00000  Uiso   1.00
O749   O     0.71779   0.97321   0.81996   0.00000  Uiso   1.00
O750   O     0.75609   0.95032   0.81375   0.00000  Uiso   1.00
C751   C     0.72825   0.93881   0.84946   0.00000  Uiso   1.00
C752   C     0.70610   0.93954   0.86479   0.00000  Uiso   1.00
H753   H     0.68965   0.95472   0.86035   0.00000  Uiso   1.00
C754   C     0.70716   0.91999   0.88515   0.00000  Uiso   1.00
C755   C     0.73456   0.95547   0.82582   0.00000  Uiso   1.00
C756   C     0.72992   0.90450   0.88437   0.00000  Uiso   1.00
S757   S     0.25053   0.58620   0.14130   0.00000  Uiso   1.00
O758   O     0.21779   0.52679   0.18004   0.00000  Uiso   1.00
O759   O     0.25609   0.54968   0.18625   0.00000  Uiso   1.00
C760   C     0.22825   0.56119   0.15054   0.00000  Uiso   1.00
C761   C     0.20610   0.56046   0.13521   0.00000  Uiso   1.00
H762   H     0.18965   0.54528   0.13965   0.00000  Uiso   1.00
C763   C     0.20716   0.58001   0.11485   0.00000  Uiso   1.00
C764   C     0.23456   0.54453   0.17418   0.00000  Uiso   1.00
C765   C     0.22992   0.59550   0.11563   0.00000  Uiso   1.00
S766   S     0.25053   0.08620   0.64130   0.00000  Uiso   1.00
O767   O     0.21779   0.02679   0.68004   0.00000  Uiso   1.00
O768   O     0.25609   0.04968   0.68625   0.00000  Uiso   1.00
C769   C     0.22825   0.06119   0.65054   0.00000  Uiso   1.00
C770   C     0.20610   0.06046   0.63521   0.00000  Uiso   1.00
H771   H     0.18965   0.04528   0.63965   0.00000  Uiso   1.00
C772   C     0.20716   0.08001   0.61485   0.00000  Uiso   1.00
C773   C     0.23456   0.04453   0.67418   0.00000  Uiso   1.00
C774   C     0.22992   0.09550   0.61563   0.00000  Uiso   1.00
S775   S     0.75053   0.58620   0.64130   0.00000  Uiso   1.00
O776   O     0.71779   0.52679   0.68004   0.00000  Uiso   1.00
O777   O     0.75609   0.54968   0.68625   0.00000  Uiso   1.00
C778   C     0.72825   0.56119   0.65054   0.00000  Uiso   1.00
C779   C     0.70610   0.56046   0.63521   0.00000  Uiso   1.00
H780   H     0.68965   0.54528   0.63965   0.00000  Uiso   1.00
C781   C     0.70716   0.58001   0.61485   0.00000  Uiso   1.00
C782   C     0.73456   0.54453   0.67418   0.00000  Uiso   1.00
C783   C     0.72992   0.59550   0.61563   0.00000  Uiso   1.00
S784   S     0.75053   0.08620   0.14130   0.00000  Uiso   1.00
O785   O     0.71779   0.02679   0.18004   0.00000  Uiso   1.00
O786   O     0.75609   0.04968   0.18625   0.00000  Uiso   1.00
C787   C     0.72825   0.06119   0.15054   0.00000  Uiso   1.00
C788   C     0.70610   0.06046   0.13521   0.00000  Uiso   1.00
H789   H     0.68965   0.04528   0.13965   0.00000  Uiso   1.00
C790   C     0.70716   0.08001   0.11485   0.00000  Uiso   1.00
C791   C     0.73456   0.04453   0.17418   0.00000  Uiso   1.00
C792   C     0.72992   0.09550   0.11563   0.00000  Uiso   1.00
S793   S     0.74947   0.41380   0.14130   0.00000  Uiso   1.00
O794   O     0.78221   0.47321   0.18004   0.00000  Uiso   1.00
O795   O     0.74391   0.45032   0.18625   0.00000  Uiso   1.00
C796   C     0.77175   0.43881   0.15054   0.00000  Uiso   1.00
C797   C     0.79390   0.43954   0.13521   0.00000  Uiso   1.00
H798   H     0.81035   0.45472   0.13965   0.00000  Uiso   1.00
C799   C     0.79284   0.41999   0.11485   0.00000  Uiso   1.00
C800   C     0.76544   0.45547   0.17418   0.00000  Uiso   1.00
C801   C     0.77008   0.40450   0.11563   0.00000  Uiso   1.00
S802   S     0.74947   0.91380   0.64130   0.00000  Uiso   1.00
O803   O     0.78221   0.97321   0.68004   0.00000  Uiso   1.00
O804   O     0.74391   0.95032   0.68625   0.00000  Uiso   1.00
C805   C     0.77175   0.93881   0.65054   0.00000  Uiso   1.00
C806   C     0.79390   0.93954   0.63521   0.00000  Uiso   1.00
H807   H     0.81035   0.95472   0.63965   0.00000  Uiso   1.00
C808   C     0.79284   0.91999   0.61485   0.00000  Uiso   1.00
C809   C     0.76544   0.95547   0.67418   0.00000  Uiso   1.00
C810   C     0.77008   0.90450   0.61563   0.00000  Uiso   1.00
S811   S     0.24947   0.41380   0.64130   0.00000  Uiso   1.00
O812   O     0.28221   0.47321   0.68004   0.00000  Uiso   1.00
O813   O     0.24391   0.45032   0.68625   0.00000  Uiso   1.00
C814   C     0.27175   0.43881   0.65054   0.00000  Uiso   1.00
C815   C     0.29390   0.43954   0.63521   0.00000  Uiso   1.00
H816   H     0.31035   0.45472   0.63965   0.00000  Uiso   1.00
C817   C     0.29284   0.41999   0.61485   0.00000  Uiso   1.00
C818   C     0.26544   0.45547   0.67418   0.00000  Uiso   1.00
C819   C     0.27008   0.40450   0.61563   0.00000  Uiso   1.00
S820   S     0.24947   0.91380   0.14130   0.00000  Uiso   1.00
O821   O     0.28221   0.97321   0.18004   0.00000  Uiso   1.00
O822   O     0.24391   0.95032   0.18625   0.00000  Uiso   1.00
C823   C     0.27175   0.93881   0.15054   0.00000  Uiso   1.00
C824   C     0.29390   0.93954   0.13521   0.00000  Uiso   1.00
H825   H     0.31035   0.95472   0.13965   0.00000  Uiso   1.00
C826   C     0.29284   0.91999   0.11485   0.00000  Uiso   1.00
C827   C     0.26544   0.95547   0.17418   0.00000  Uiso   1.00
C828   C     0.27008   0.90450   0.11563   0.00000  Uiso   1.00
S829   S     0.74947   0.58620   0.85870   0.00000  Uiso   1.00
O830   O     0.78221   0.52679   0.81996   0.00000  Uiso   1.00
O831   O     0.74391   0.54968   0.81375   0.00000  Uiso   1.00
C832   C     0.77175   0.56119   0.84946   0.00000  Uiso   1.00
C833   C     0.79390   0.56046   0.86479   0.00000  Uiso   1.00
H834   H     0.81035   0.54528   0.86035   0.00000  Uiso   1.00
C835   C     0.79284   0.58001   0.88515   0.00000  Uiso   1.00
C836   C     0.76544   0.54453   0.82582   0.00000  Uiso   1.00
C837   C     0.77008   0.59550   0.88437   0.00000  Uiso   1.00
S838   S     0.74947   0.08620   0.35870   0.00000  Uiso   1.00
O839   O     0.78221   0.02679   0.31996   0.00000  Uiso   1.00
O840   O     0.74391   0.04968   0.31375   0.00000  Uiso   1.00
C841   C     0.77175   0.06119   0.34946   0.00000  Uiso   1.00
C842   C     0.79390   0.06046   0.36479   0.00000  Uiso   1.00
H843   H     0.81035   0.04528   0.36035   0.00000  Uiso   1.00
C844   C     0.79284   0.08001   0.38515   0.00000  Uiso   1.00
C845   C     0.76544   0.04453   0.32582   0.00000  Uiso   1.00
C846   C     0.77008   0.09550   0.38437   0.00000  Uiso   1.00
S847   S     0.24947   0.58620   0.35870   0.00000  Uiso   1.00
O848   O     0.28221   0.52679   0.31996   0.00000  Uiso   1.00
O849   O     0.24391   0.54968   0.31375   0.00000  Uiso   1.00
C850   C     0.27175   0.56119   0.34946   0.00000  Uiso   1.00
C851   C     0.29390   0.56046   0.36479   0.00000  Uiso   1.00
H852   H     0.31035   0.54528   0.36035   0.00000  Uiso   1.00
C853   C     0.29284   0.58001   0.38515   0.00000  Uiso   1.00
C854   C     0.26544   0.54453   0.32582   0.00000  Uiso   1.00
C855   C     0.27008   0.59550   0.38437   0.00000  Uiso   1.00
S856   S     0.24947   0.08620   0.85870   0.00000  Uiso   1.00
O857   O     0.28221   0.02679   0.81996   0.00000  Uiso   1.00
O858   O     0.24391   0.04968   0.81375   0.00000  Uiso   1.00
C859   C     0.27175   0.06119   0.84946   0.00000  Uiso   1.00
C860   C     0.29390   0.06046   0.86479   0.00000  Uiso   1.00
H861   H     0.31035   0.04528   0.86035   0.00000  Uiso   1.00
C862   C     0.29284   0.08001   0.88515   0.00000  Uiso   1.00
C863   C     0.26544   0.04453   0.82582   0.00000  Uiso   1.00
C864   C     0.27008   0.09550   0.88437   0.00000  Uiso   1.00
S865   S     0.85870   0.58620   0.74947   0.00000  Uiso   1.00
O866   O     0.81996   0.52679   0.78221   0.00000  Uiso   1.00
O867   O     0.81375   0.54968   0.74391   0.00000  Uiso   1.00
C868   C     0.84946   0.56119   0.77175   0.00000  Uiso   1.00
C869   C     0.86479   0.56046   0.79390   0.00000  Uiso   1.00
H870   H     0.86035   0.54528   0.81035   0.00000  Uiso   1.00
C871   C     0.88515   0.58001   0.79284   0.00000  Uiso   1.00
C872   C     0.82582   0.54453   0.76544   0.00000  Uiso   1.00
C873   C     0.88437   0.59550   0.77008   0.00000  Uiso   1.00
S874   S     0.85870   0.08620   0.24947   0.00000  Uiso   1.00
O875   O     0.81996   0.02679   0.28221   0.00000  Uiso   1.00
O876   O     0.81375   0.04968   0.24391   0.00000  Uiso   1.00
C877   C     0.84946   0.06119   0.27175   0.00000  Uiso   1.00
C878   C     0.86479   0.06046   0.29390   0.00000  Uiso   1.00
H879   H     0.86035   0.04528   0.31035   0.00000  Uiso   1.00
C880   C     0.88515   0.08001   0.29284   0.00000  Uiso   1.00
C881   C     0.82582   0.04453   0.26544   0.00000  Uiso   1.00
C882   C     0.88437   0.09550   0.27008   0.00000  Uiso   1.00
S883   S     0.35870   0.58620   0.24947   0.00000  Uiso   1.00
O884   O     0.31996   0.52679   0.28221   0.00000  Uiso   1.00
O885   O     0.31375   0.54968   0.24391   0.00000  Uiso   1.00
C886   C     0.34946   0.56119   0.27175   0.00000  Uiso   1.00
C887   C     0.36479   0.56046   0.29390   0.00000  Uiso   1.00
H888   H     0.36035   0.54528   0.31035   0.00000  Uiso   1.00
C889   C     0.38515   0.58001   0.29284   0.00000  Uiso   1.00
C890   C     0.32582   0.54453   0.26544   0.00000  Uiso   1.00
C891   C     0.38437   0.59550   0.27008   0.00000  Uiso   1.00
S892   S     0.35870   0.08620   0.74947   0.00000  Uiso   1.00
O893   O     0.31996   0.02679   0.78221   0.00000  Uiso   1.00
O894   O     0.31375   0.04968   0.74391   0.00000  Uiso   1.00
C895   C     0.34946   0.06119   0.77175   0.00000  Uiso   1.00
C896   C     0.36479   0.06046   0.79390   0.00000  Uiso   1.00
H897   H     0.36035   0.04528   0.81035   0.00000  Uiso   1.00
C898   C     0.38515   0.08001   0.79284   0.00000  Uiso   1.00
C899   C     0.32582   0.04453   0.76544   0.00000  Uiso   1.00
C900   C     0.38437   0.09550   0.77008   0.00000  Uiso   1.00
S901   S     0.14130   0.41380   0.74947   0.00000  Uiso   1.00
O902   O     0.18004   0.47321   0.78221   0.00000  Uiso   1.00
O903   O     0.18625   0.45032   0.74391   0.00000  Uiso   1.00
C904   C     0.15054   0.43881   0.77175   0.00000  Uiso   1.00
C905   C     0.13521   0.43954   0.79390   0.00000  Uiso   1.00
H906   H     0.13965   0.45472   0.81035   0.00000  Uiso   1.00
C907   C     0.11485   0.41999   0.79284   0.00000  Uiso   1.00
C908   C     0.17418   0.45547   0.76544   0.00000  Uiso   1.00
C909   C     0.11563   0.40450   0.77008   0.00000  Uiso   1.00
S910   S     0.14130   0.91380   0.24947   0.00000  Uiso   1.00
O911   O     0.18004   0.97321   0.28221   0.00000  Uiso   1.00
O912   O     0.18625   0.95032   0.24391   0.00000  Uiso   1.00
C913   C     0.15054   0.93881   0.27175   0.00000  Uiso   1.00
C914   C     0.13521   0.93954   0.29390   0.00000  Uiso   1.00
H915   H     0.13965   0.95472   0.31035   0.00000  Uiso   1.00
C916   C     0.11485   0.91999   0.29284   0.00000  Uiso   1.00
C917   C     0.17418   0.95547   0.26544   0.00000  Uiso   1.00
C918   C     0.11563   0.90450   0.27008   0.00000  Uiso   1.00
S919   S     0.64130   0.41380   0.24947   0.00000  Uiso   1.00
O920   O     0.68004   0.47321   0.28221   0.00000  Uiso   1.00
O921   O     0.68625   0.45032   0.24391   0.00000  Uiso   1.00
C922   C     0.65054   0.43881   0.27175   0.00000  Uiso   1.00
C923   C     0.63521   0.43954   0.29390   0.00000  Uiso   1.00
H924   H     0.63965   0.45472   0.31035   0.00000  Uiso   1.00
C925   C     0.61485   0.41999   0.29284   0.00000  Uiso   1.00
C926   C     0.67418   0.45547   0.26544   0.00000  Uiso   1.00
C927   C     0.61563   0.40450   0.27008   0.00000  Uiso   1.00
S928   S     0.64130   0.91380   0.74947   0.00000  Uiso   1.00
O929   O     0.68004   0.97321   0.78221   0.00000  Uiso   1.00
O930   O     0.68625   0.95032   0.74391   0.00000  Uiso   1.00
C931   C     0.65054   0.93881   0.77175   0.00000  Uiso   1.00
C932   C     0.63521   0.93954   0.79390   0.00000  Uiso   1.00
H933   H     0.63965   0.95472   0.81035   0.00000  Uiso   1.00
C934   C     0.61485   0.91999   0.79284   0.00000  Uiso   1.00
C935   C     0.67418   0.95547   0.76544   0.00000  Uiso   1.00
C936   C     0.61563   0.90450   0.77008   0.00000  Uiso   1.00
S937   S     0.14130   0.58620   0.25053   0.00000  Uiso   1.00
O938   O     0.18004   0.52679   0.21779   0.00000  Uiso   1.00
O939   O     0.18625   0.54968   0.25609   0.00000  Uiso   1.00
C940   C     0.15054   0.56119   0.22825   0.00000  Uiso   1.00
C941   C     0.13521   0.56046   0.20610   0.00000  Uiso   1.00
H942   H     0.13965   0.54528   0.18965   0.00000  Uiso   1.00
C943   C     0.11485   0.58001   0.20716   0.00000  Uiso   1.00
C944   C     0.17418   0.54453   0.23456   0.00000  Uiso   1.00
C945   C     0.11563   0.59550   0.22992   0.00000  Uiso   1.00
S946   S     0.14130   0.08620   0.75053   0.00000  Uiso   1.00
O947   O     0.18004   0.02679   0.71779   0.00000  Uiso   1.00
O948   O     0.18625   0.04968   0.75609   0.00000  Uiso   1.00
C949   C     0.15054   0.06119   0.72825   0.00000  Uiso   1.00
C950   C     0.13521   0.06046   0.70610   0.00000  Uiso   1.00
H951   H     0.13965   0.04528   0.68965   0.00000  Uiso   1.00
C952   C     0.11485   0.08001   0.70716   0.00000  Uiso   1.00
C953   C     0.17418   0.04453   0.73456   0.00000  Uiso   1.00
C954   C     0.11563   0.09550   0.72992   0.00000  Uiso   1.00
S955   S     0.64130   0.58620   0.75053   0.00000  Uiso   1.00
O956   O     0.68004   0.52679   0.71779   0.00000  Uiso   1.00
O957   O     0.68625   0.54968   0.75609   0.00000  Uiso   1.00
C958   C     0.65054   0.56119   0.72825   0.00000  Uiso   1.00
C959   C     0.63521   0.56046   0.70610   0.00000  Uiso   1.00
H960   H     0.63965   0.54528   0.68965   0.00000  Uiso   1.00
C961   C     0.61485   0.58001   0.70716   0.00000  Uiso   1.00
C962   C     0.67418   0.54453   0.73456   0.00000  Uiso   1.00
C963   C     0.61563   0.59550   0.72992   0.00000  Uiso   1.00
S964   S     0.64130   0.08620   0.25053   0.00000  Uiso   1.00
O965   O     0.68004   0.02679   0.21779   0.00000  Uiso   1.00
O966   O     0.68625   0.04968   0.25609   0.00000  Uiso   1.00
C967   C     0.65054   0.06119   0.22825   0.00000  Uiso   1.00
C968   C     0.63521   0.06046   0.20610   0.00000  Uiso   1.00
H969   H     0.63965   0.04528   0.18965   0.00000  Uiso   1.00
C970   C     0.61485   0.08001   0.20716   0.00000  Uiso   1.00
C971   C     0.67418   0.04453   0.23456   0.00000  Uiso   1.00
C972   C     0.61563   0.09550   0.22992   0.00000  Uiso   1.00
S973   S     0.85870   0.41380   0.25053   0.00000  Uiso   1.00
O974   O     0.81996   0.47321   0.21779   0.00000  Uiso   1.00
O975   O     0.81375   0.45032   0.25609   0.00000  Uiso   1.00
C976   C     0.84946   0.43881   0.22825   0.00000  Uiso   1.00
C977   C     0.86479   0.43954   0.20610   0.00000  Uiso   1.00
H978   H     0.86035   0.45472   0.18965   0.00000  Uiso   1.00
C979   C     0.88515   0.41999   0.20716   0.00000  Uiso   1.00
C980   C     0.82582   0.45547   0.23456   0.00000  Uiso   1.00
C981   C     0.88437   0.40450   0.22992   0.00000  Uiso   1.00
S982   S     0.85870   0.91380   0.75053   0.00000  Uiso   1.00
O983   O     0.81996   0.97321   0.71779   0.00000  Uiso   1.00
O984   O     0.81375   0.95032   0.75609   0.00000  Uiso   1.00
C985   C     0.84946   0.93881   0.72825   0.00000  Uiso   1.00
C986   C     0.86479   0.93954   0.70610   0.00000  Uiso   1.00
H987   H     0.86035   0.95472   0.68965   0.00000  Uiso   1.00
C988   C     0.88515   0.91999   0.70716   0.00000  Uiso   1.00
C989   C     0.82582   0.95547   0.73456   0.00000  Uiso   1.00
C990   C     0.88437   0.90450   0.72992   0.00000  Uiso   1.00
S991   S     0.35870   0.41380   0.75053   0.00000  Uiso   1.00
O992   O     0.31996   0.47321   0.71779   0.00000  Uiso   1.00
O993   O     0.31375   0.45032   0.75609   0.00000  Uiso   1.00
C994   C     0.34946   0.43881   0.72825   0.00000  Uiso   1.00
C995   C     0.36479   0.43954   0.70610   0.00000  Uiso   1.00
H996   H     0.36035   0.45472   0.68965   0.00000  Uiso   1.00
C997   C     0.38515   0.41999   0.70716   0.00000  Uiso   1.00
C998   C     0.32582   0.45547   0.73456   0.00000  Uiso   1.00
C999   C     0.38437   0.40450   0.72992   0.00000  Uiso   1.00
S1000  S     0.35870   0.91380   0.25053   0.00000  Uiso   1.00
O1001  O     0.31996   0.97321   0.21779   0.00000  Uiso   1.00
O1002  O     0.31375   0.95032   0.25609   0.00000  Uiso   1.00
C1003  C     0.34946   0.93881   0.22825   0.00000  Uiso   1.00
C1004  C     0.36479   0.93954   0.20610   0.00000  Uiso   1.00
H1005  H     0.36035   0.95472   0.18965   0.00000  Uiso   1.00
C1006  C     0.38515   0.91999   0.20716   0.00000  Uiso   1.00
C1007  C     0.32582   0.95547   0.23456   0.00000  Uiso   1.00
C1008  C     0.38437   0.90450   0.22992   0.00000  Uiso   1.00
S1009  S     0.74947   0.85870   0.58620   0.00000  Uiso   1.00
O1010  O     0.78221   0.81996   0.52679   0.00000  Uiso   1.00
O1011  O     0.74391   0.81375   0.54968   0.00000  Uiso   1.00
C1012  C     0.77175   0.84946   0.56119   0.00000  Uiso   1.00
C1013  C     0.79390   0.86479   0.56046   0.00000  Uiso   1.00
H1014  H     0.81035   0.86035   0.54528   0.00000  Uiso   1.00
C1015  C     0.79284   0.88515   0.58001   0.00000  Uiso   1.00
C1016  C     0.76544   0.82582   0.54453   0.00000  Uiso   1.00
C1017  C     0.77008   0.88437   0.59550   0.00000  Uiso   1.00
S1018  S     0.74947   0.35870   0.08620   0.00000  Uiso   1.00
O1019  O     0.78221   0.31996   0.02679   0.00000  Uiso   1.00
O1020  O     0.74391   0.31375   0.04968   0.00000  Uiso   1.00
C1021  C     0.77175   0.34946   0.06119   0.00000  Uiso   1.00
C1022  C     0.79390   0.36479   0.06046   0.00000  Uiso   1.00
H1023  H     0.81035   0.36035   0.04528   0.00000  Uiso   1.00
C1024  C     0.79284   0.38515   0.08001   0.00000  Uiso   1.00
C1025  C     0.76544   0.32582   0.04453   0.00000  Uiso   1.00
C1026  C     0.77008   0.38437   0.09550   0.00000  Uiso   1.00
S1027  S     0.24947   0.85870   0.08620   0.00000  Uiso   1.00
O1028  O     0.28221   0.81996   0.02679   0.00000  Uiso   1.00
O1029  O     0.24391   0.81375   0.04968   0.00000  Uiso   1.00
C1030  C     0.27175   0.84946   0.06119   0.00000  Uiso   1.00
C1031  C     0.29390   0.86479   0.06046   0.00000  Uiso   1.00
H1032  H     0.31035   0.86035   0.04528   0.00000  Uiso   1.00
C1033  C     0.29284   0.88515   0.08001   0.00000  Uiso   1.00
C1034  C     0.26544   0.82582   0.04453   0.00000  Uiso   1.00
C1035  C     0.27008   0.88437   0.09550   0.00000  Uiso   1.00
S1036  S     0.24947   0.35870   0.58620   0.00000  Uiso   1.00
O1037  O     0.28221   0.31996   0.52679   0.00000  Uiso   1.00
O1038  O     0.24391   0.31375   0.54968   0.00000  Uiso   1.00
C1039  C     0.27175   0.34946   0.56119   0.00000  Uiso   1.00
C1040  C     0.29390   0.36479   0.56046   0.00000  Uiso   1.00
H1041  H     0.31035   0.36035   0.54528   0.00000  Uiso   1.00
C1042  C     0.29284   0.38515   0.58001   0.00000  Uiso   1.00
C1043  C     0.26544   0.32582   0.54453   0.00000  Uiso   1.00
C1044  C     0.27008   0.38437   0.59550   0.00000  Uiso   1.00
S1045  S     0.74947   0.14130   0.41380   0.00000  Uiso   1.00
O1046  O     0.78221   0.18004   0.47321   0.00000  Uiso   1.00
O1047  O     0.74391   0.18625   0.45032   0.00000  Uiso   1.00
C1048  C     0.77175   0.15054   0.43881   0.00000  Uiso   1.00
C1049  C     0.79390   0.13521   0.43954   0.00000  Uiso   1.00
H1050  H     0.81035   0.13965   0.45472   0.00000  Uiso   1.00
C1051  C     0.79284   0.11485   0.41999   0.00000  Uiso   1.00
C1052  C     0.76544   0.17418   0.45547   0.00000  Uiso   1.00
C1053  C     0.77008   0.11563   0.40450   0.00000  Uiso   1.00
S1054  S     0.74947   0.64130   0.91380   0.00000  Uiso   1.00
O1055  O     0.78221   0.68004   0.97321   0.00000  Uiso   1.00
O1056  O     0.74391   0.68625   0.95032   0.00000  Uiso   1.00
C1057  C     0.77175   0.65054   0.93881   0.00000  Uiso   1.00
C1058  C     0.79390   0.63521   0.93954   0.00000  Uiso   1.00
H1059  H     0.81035   0.63965   0.95472   0.00000  Uiso   1.00
C1060  C     0.79284   0.61485   0.91999   0.00000  Uiso   1.00
C1061  C     0.76544   0.67418   0.95547   0.00000  Uiso   1.00
C1062  C     0.77008   0.61563   0.90450   0.00000  Uiso   1.00
S1063  S     0.24947   0.14130   0.91380   0.00000  Uiso   1.00
O1064  O     0.28221   0.18004   0.97321   0.00000  Uiso   1.00
O1065  O     0.24391   0.18625   0.95032   0.00000  Uiso   1.00
C1066  C     0.27175   0.15054   0.93881   0.00000  Uiso   1.00
C1067  C     0.29390   0.13521   0.93954   0.00000  Uiso   1.00
H1068  H     0.31035   0.13965   0.95472   0.00000  Uiso   1.00
C1069  C     0.29284   0.11485   0.91999   0.00000  Uiso   1.00
C1070  C     0.26544   0.17418   0.95547   0.00000  Uiso   1.00
C1071  C     0.27008   0.11563   0.90450   0.00000  Uiso   1.00
S1072  S     0.24947   0.64130   0.41380   0.00000  Uiso   1.00
O1073  O     0.28221   0.68004   0.47321   0.00000  Uiso   1.00
O1074  O     0.24391   0.68625   0.45032   0.00000  Uiso   1.00
C1075  C     0.27175   0.65054   0.43881   0.00000  Uiso   1.00
C1076  C     0.29390   0.63521   0.43954   0.00000  Uiso   1.00
H1077  H     0.31035   0.63965   0.45472   0.00000  Uiso   1.00
C1078  C     0.29284   0.61485   0.41999   0.00000  Uiso   1.00
C1079  C     0.26544   0.67418   0.45547   0.00000  Uiso   1.00
C1080  C     0.27008   0.61563   0.40450   0.00000  Uiso   1.00
S1081  S     0.25053   0.14130   0.58620   0.00000  Uiso   1.00
O1082  O     0.21779   0.18004   0.52679   0.00000  Uiso   1.00
O1083  O     0.25609   0.18625   0.54968   0.00000  Uiso   1.00
C1084  C     0.22825   0.15054   0.56119   0.00000  Uiso   1.00
C1085  C     0.20610   0.13521   0.56046   0.00000  Uiso   1.00
H1086  H     0.18965   0.13965   0.54528   0.00000  Uiso   1.00
C1087  C     0.20716   0.11485   0.58001   0.00000  Uiso   1.00
C1088  C     0.23456   0.17418   0.54453   0.00000  Uiso   1.00
C1089  C     0.22992   0.11563   0.59550   0.00000  Uiso   1.00
S1090  S     0.25053   0.64130   0.08620   0.00000  Uiso   1.00
O1091  O     0.21779   0.68004   0.02679   0.00000  Uiso   1.00
O1092  O     0.25609   0.68625   0.04968   0.00000  Uiso   1.00
C1093  C     0.22825   0.65054   0.06119   0.00000  Uiso   1.00
C1094  C     0.20610   0.63521   0.06046   0.00000  Uiso   1.00
H1095  H     0.18965   0.63965   0.04528   0.00000  Uiso   1.00
C1096  C     0.20716   0.61485   0.08001   0.00000  Uiso   1.00
C1097  C     0.23456   0.67418   0.04453   0.00000  Uiso   1.00
C1098  C     0.22992   0.61563   0.09550   0.00000  Uiso   1.00
S1099  S     0.75053   0.14130   0.08620   0.00000  Uiso   1.00
O1100  O     0.71779   0.18004   0.02679   0.00000  Uiso   1.00
O1101  O     0.75609   0.18625   0.04968   0.00000  Uiso   1.00
C1102  C     0.72825   0.15054   0.06119   0.00000  Uiso   1.00
C1103  C     0.70610   0.13521   0.06046   0.00000  Uiso   1.00
H1104  H     0.68965   0.13965   0.04528   0.00000  Uiso   1.00
C1105  C     0.70716   0.11485   0.08001   0.00000  Uiso   1.00
C1106  C     0.73456   0.17418   0.04453   0.00000  Uiso   1.00
C1107  C     0.72992   0.11563   0.09550   0.00000  Uiso   1.00
S1108  S     0.75053   0.64130   0.58620   0.00000  Uiso   1.00
O1109  O     0.71779   0.68004   0.52679   0.00000  Uiso   1.00
O1110  O     0.75609   0.68625   0.54968   0.00000  Uiso   1.00
C1111  C     0.72825   0.65054   0.56119   0.00000  Uiso   1.00
C1112  C     0.70610   0.63521   0.56046   0.00000  Uiso   1.00
H1113  H     0.68965   0.63965   0.54528   0.00000  Uiso   1.00
C1114  C     0.70716   0.61485   0.58001   0.00000  Uiso   1.00
C1115  C     0.73456   0.67418   0.54453   0.00000  Uiso   1.00
C1116  C     0.72992   0.61563   0.59550   0.00000  Uiso   1.00
S1117  S     0.25053   0.85870   0.41380   0.00000  Uiso   1.00
O1118  O     0.21779   0.81996   0.47321   0.00000  Uiso   1.00
O1119  O     0.25609   0.81375   0.45032   0.00000  Uiso   1.00
C1120  C     0.22825   0.84946   0.43881   0.00000  Uiso   1.00
C1121  C     0.20610   0.86479   0.43954   0.00000  Uiso   1.00
H1122  H     0.18965   0.86035   0.45472   0.00000  Uiso   1.00
C1123  C     0.20716   0.88515   0.41999   0.00000  Uiso   1.00
C1124  C     0.23456   0.82582   0.45547   0.00000  Uiso   1.00
C1125  C     0.22992   0.88437   0.40450   0.00000  Uiso   1.00
S1126  S     0.25053   0.35870   0.91380   0.00000  Uiso   1.00
O1127  O     0.21779   0.31996   0.97321   0.00000  Uiso   1.00
O1128  O     0.25609   0.31375   0.95032   0.00000  Uiso   1.00
C1129  C     0.22825   0.34946   0.93881   0.00000  Uiso   1.00
C1130  C     0.20610   0.36479   0.93954   0.00000  Uiso   1.00
H1131  H     0.18965   0.36035   0.95472   0.00000  Uiso   1.00
C1132  C     0.20716   0.38515   0.91999   0.00000  Uiso   1.00
C1133  C     0.23456   0.32582   0.95547   0.00000  Uiso   1.00
C1134  C     0.22992   0.38437   0.90450   0.00000  Uiso   1.00
S1135  S     0.75053   0.85870   0.91380   0.00000  Uiso   1.00
O1136  O     0.71779   0.81996   0.97321   0.00000  Uiso   1.00
O1137  O     0.75609   0.81375   0.95032   0.00000  Uiso   1.00
C1138  C     0.72825   0.84946   0.93881   0.00000  Uiso   1.00
C1139  C     0.70610   0.86479   0.93954   0.00000  Uiso   1.00
H1140  H     0.68965   0.86035   0.95472   0.00000  Uiso   1.00
C1141  C     0.70716   0.88515   0.91999   0.00000  Uiso   1.00
C1142  C     0.73456   0.82582   0.95547   0.00000  Uiso   1.00
C1143  C     0.72992   0.88437   0.90450   0.00000  Uiso   1.00
S1144  S     0.75053   0.35870   0.41380   0.00000  Uiso   1.00
O1145  O     0.71779   0.31996   0.47321   0.00000  Uiso   1.00
O1146  O     0.75609   0.31375   0.45032   0.00000  Uiso   1.00
C1147  C     0.72825   0.34946   0.43881   0.00000  Uiso   1.00
C1148  C     0.70610   0.36479   0.43954   0.00000  Uiso   1.00
H1149  H     0.68965   0.36035   0.45472   0.00000  Uiso   1.00
C1150  C     0.70716   0.38515   0.41999   0.00000  Uiso   1.00
C1151  C     0.73456   0.32582   0.45547   0.00000  Uiso   1.00
C1152  C     0.72992   0.38437   0.40450   0.00000  Uiso   1.00
S1153  S     0.58620   0.74947   0.85870   0.00000  Uiso   1.00
O1154  O     0.52679   0.78221   0.81996   0.00000  Uiso   1.00
O1155  O     0.54968   0.74391   0.81375   0.00000  Uiso   1.00
C1156  C     0.56119   0.77175   0.84946   0.00000  Uiso   1.00
C1157  C     0.56046   0.79390   0.86479   0.00000  Uiso   1.00
H1158  H     0.54528   0.81035   0.86035   0.00000  Uiso   1.00
C1159  C     0.58001   0.79284   0.88515   0.00000  Uiso   1.00
C1160  C     0.54453   0.76544   0.82582   0.00000  Uiso   1.00
C1161  C     0.59550   0.77008   0.88437   0.00000  Uiso   1.00
S1162  S     0.58620   0.24947   0.35870   0.00000  Uiso   1.00
O1163  O     0.52679   0.28221   0.31996   0.00000  Uiso   1.00
O1164  O     0.54968   0.24391   0.31375   0.00000  Uiso   1.00
C1165  C     0.56119   0.27175   0.34946   0.00000  Uiso   1.00
C1166  C     0.56046   0.29390   0.36479   0.00000  Uiso   1.00
H1167  H     0.54528   0.31035   0.36035   0.00000  Uiso   1.00
C1168  C     0.58001   0.29284   0.38515   0.00000  Uiso   1.00
C1169  C     0.54453   0.26544   0.32582   0.00000  Uiso   1.00
C1170  C     0.59550   0.27008   0.38437   0.00000  Uiso   1.00
S1171  S     0.08620   0.74947   0.35870   0.00000  Uiso   1.00
O1172  O     0.02679   0.78221   0.31996   0.00000  Uiso   1.00
O1173  O     0.04968   0.74391   0.31375   0.00000  Uiso   1.00
C1174  C     0.06119   0.77175   0.34946   0.00000  Uiso   1.00
C1175  C     0.06046   0.79390   0.36479   0.00000  Uiso   1.00
H1176  H     0.04528   0.81035   0.36035   0.00000  Uiso   1.00
C1177  C     0.08001   0.79284   0.38515   0.00000  Uiso   1.00
C1178  C     0.04453   0.76544   0.32582   0.00000  Uiso   1.00
C1179  C     0.09550   0.77008   0.38437   0.00000  Uiso   1.00
S1180  S     0.08620   0.24947   0.85870   0.00000  Uiso   1.00
O1181  O     0.02679   0.28221   0.81996   0.00000  Uiso   1.00
O1182  O     0.04968   0.24391   0.81375   0.00000  Uiso   1.00
C1183  C     0.06119   0.27175   0.84946   0.00000  Uiso   1.00
C1184  C     0.06046   0.29390   0.86479   0.00000  Uiso   1.00
H1185  H     0.04528   0.31035   0.86035   0.00000  Uiso   1.00
C1186  C     0.08001   0.29284   0.88515   0.00000  Uiso   1.00
C1187  C     0.04453   0.26544   0.82582   0.00000  Uiso   1.00
C1188  C     0.09550   0.27008   0.88437   0.00000  Uiso   1.00
S1189  S     0.41380   0.74947   0.14130   0.00000  Uiso   1.00
O1190  O     0.47321   0.78221   0.18004   0.00000  Uiso   1.00
O1191  O     0.45032   0.74391   0.18625   0.00000  Uiso   1.00
C1192  C     0.43881   0.77175   0.15054   0.00000  Uiso   1.00
C1193  C     0.43954   0.79390   0.13521   0.00000  Uiso   1.00
H1194  H     0.45472   0.81035   0.13965   0.00000  Uiso   1.00
C1195  C     0.41999   0.79284   0.11485   0.00000  Uiso   1.00
C1196  C     0.45547   0.76544   0.17418   0.00000  Uiso   1.00
C1197  C     0.40450   0.77008   0.11563   0.00000  Uiso   1.00
S1198  S     0.41380   0.24947   0.64130   0.00000  Uiso   1.00
O1199  O     0.47321   0.28221   0.68004   0.00000  Uiso   1.00
O1200  O     0.45032   0.24391   0.68625   0.00000  Uiso   1.00
C1201  C     0.43881   0.27175   0.65054   0.00000  Uiso   1.00
C1202  C     0.43954   0.29390   0.63521   0.00000  Uiso   1.00
H1203  H     0.45472   0.31035   0.63965   0.00000  Uiso   1.00
C1204  C     0.41999   0.29284   0.61485   0.00000  Uiso   1.00
C1205  C     0.45547   0.26544   0.67418   0.00000  Uiso   1.00
C1206  C     0.40450   0.27008   0.61563   0.00000  Uiso   1.00
S1207  S     0.91380   0.74947   0.64130   0.00000  Uiso   1.00
O1208  O     0.97321   0.78221   0.68004   0.00000  Uiso   1.00
O1209  O     0.95032   0.74391   0.68625   0.00000  Uiso   1.00
C1210  C     0.93881   0.77175   0.65054   0.00000  Uiso   1.00
C1211  C     0.93954   0.79390   0.63521   0.00000  Uiso   1.00
H1212  H     0.95472   0.81035   0.63965   0.00000  Uiso   1.00
C1213  C     0.91999   0.79284   0.61485   0.00000  Uiso   1.00
C1214  C     0.95547   0.76544   0.67418   0.00000  Uiso   1.00
C1215  C     0.90450   0.77008   0.61563   0.00000  Uiso   1.00
S1216  S     0.91380   0.24947   0.14130   0.00000  Uiso   1.00
O1217  O     0.97321   0.28221   0.18004   0.00000  Uiso   1.00
O1218  O     0.95032   0.24391   0.18625   0.00000  Uiso   1.00
C1219  C     0.93881   0.27175   0.15054   0.00000  Uiso   1.00
C1220  C     0.93954   0.29390   0.13521   0.00000  Uiso   1.00
H1221  H     0.95472   0.31035   0.13965   0.00000  Uiso   1.00
C1222  C     0.91999   0.29284   0.11485   0.00000  Uiso   1.00
C1223  C     0.95547   0.26544   0.17418   0.00000  Uiso   1.00
C1224  C     0.90450   0.27008   0.11563   0.00000  Uiso   1.00
S1225  S     0.58620   0.25053   0.14130   0.00000  Uiso   1.00
O1226  O     0.52679   0.21779   0.18004   0.00000  Uiso   1.00
O1227  O     0.54968   0.25609   0.18625   0.00000  Uiso   1.00
C1228  C     0.56119   0.22825   0.15054   0.00000  Uiso   1.00
C1229  C     0.56046   0.20610   0.13521   0.00000  Uiso   1.00
H1230  H     0.54528   0.18965   0.13965   0.00000  Uiso   1.00
C1231  C     0.58001   0.20716   0.11485   0.00000  Uiso   1.00
C1232  C     0.54453   0.23456   0.17418   0.00000  Uiso   1.00
C1233  C     0.59550   0.22992   0.11563   0.00000  Uiso   1.00
S1234  S     0.58620   0.75053   0.64130   0.00000  Uiso   1.00
O1235  O     0.52679   0.71779   0.68004   0.00000  Uiso   1.00
O1236  O     0.54968   0.75609   0.68625   0.00000  Uiso   1.00
C1237  C     0.56119   0.72825   0.65054   0.00000  Uiso   1.00
C1238  C     0.56046   0.70610   0.63521   0.00000  Uiso   1.00
H1239  H     0.54528   0.68965   0.63965   0.00000  Uiso   1.00
C1240  C     0.58001   0.70716   0.61485   0.00000  Uiso   1.00
C1241  C     0.54453   0.73456   0.67418   0.00000  Uiso   1.00
C1242  C     0.59550   0.72992   0.61563   0.00000  Uiso   1.00
S1243  S     0.08620   0.25053   0.64130   0.00000  Uiso   1.00
O1244  O     0.02679   0.21779   0.68004   0.00000  Uiso   1.00
O1245  O     0.04968   0.25609   0.68625   0.00000  Uiso   1.00
C1246  C     0.06119   0.22825   0.65054   0.00000  Uiso   1.00
C1247  C     0.06046   0.20610   0.63521   0.00000  Uiso   1.00
H1248  H     0.04528   0.18965   0.63965   0.00000  Uiso   1.00
C1249  C     0.08001   0.20716   0.61485   0.00000  Uiso   1.00
C1250  C     0.04453   0.23456   0.67418   0.00000  Uiso   1.00
C1251  C     0.09550   0.22992   0.61563   0.00000  Uiso   1.00
S1252  S     0.08620   0.75053   0.14130   0.00000  Uiso   1.00
O1253  O     0.02679   0.71779   0.18004   0.00000  Uiso   1.00
O1254  O     0.04968   0.75609   0.18625   0.00000  Uiso   1.00
C1255  C     0.06119   0.72825   0.15054   0.00000  Uiso   1.00
C1256  C     0.06046   0.70610   0.13521   0.00000  Uiso   1.00
H1257  H     0.04528   0.68965   0.13965   0.00000  Uiso   1.00
C1258  C     0.08001   0.70716   0.11485   0.00000  Uiso   1.00
C1259  C     0.04453   0.73456   0.17418   0.00000  Uiso   1.00
C1260  C     0.09550   0.72992   0.11563   0.00000  Uiso   1.00
S1261  S     0.41380   0.25053   0.85870   0.00000  Uiso   1.00
O1262  O     0.47321   0.21779   0.81996   0.00000  Uiso   1.00
O1263  O     0.45032   0.25609   0.81375   0.00000  Uiso   1.00
C1264  C     0.43881   0.22825   0.84946   0.00000  Uiso   1.00
C1265  C     0.43954   0.20610   0.86479   0.00000  Uiso   1.00
H1266  H     0.45472   0.18965   0.86035   0.00000  Uiso   1.00
C1267  C     0.41999   0.20716   0.88515   0.00000  Uiso   1.00
C1268  C     0.45547   0.23456   0.82582   0.00000  Uiso   1.00
C1269  C     0.40450   0.22992   0.88437   0.00000  Uiso   1.00
S1270  S     0.41380   0.75053   0.35870   0.00000  Uiso   1.00
O1271  O     0.47321   0.71779   0.31996   0.00000  Uiso   1.00
O1272  O     0.45032   0.75609   0.31375   0.00000  Uiso   1.00
C1273  C     0.43881   0.72825   0.34946   0.00000  Uiso   1.00
C1274  C     0.43954   0.70610   0.36479   0.00000  Uiso   1.00
H1275  H     0.45472   0.68965   0.36035   0.00000  Uiso   1.00
C1276  C     0.41999   0.70716   0.38515   0.00000  Uiso   1.00
C1277  C     0.45547   0.73456   0.32582   0.00000  Uiso   1.00
C1278  C     0.40450   0.72992   0.38437   0.00000  Uiso   1.00
S1279  S     0.91380   0.25053   0.35870   0.00000  Uiso   1.00
O1280  O     0.97321   0.21779   0.31996   0.00000  Uiso   1.00
O1281  O     0.95032   0.25609   0.31375   0.00000  Uiso   1.00
C1282  C     0.93881   0.22825   0.34946   0.00000  Uiso   1.00
C1283  C     0.93954   0.20610   0.36479   0.00000  Uiso   1.00
H1284  H     0.95472   0.18965   0.36035   0.00000  Uiso   1.00
C1285  C     0.91999   0.20716   0.38515   0.00000  Uiso   1.00
C1286  C     0.95547   0.23456   0.32582   0.00000  Uiso   1.00
C1287  C     0.90450   0.22992   0.38437   0.00000  Uiso   1.00
S1288  S     0.91380   0.75053   0.85870   0.00000  Uiso   1.00
O1289  O     0.97321   0.71779   0.81996   0.00000  Uiso   1.00
O1290  O     0.95032   0.75609   0.81375   0.00000  Uiso   1.00
C1291  C     0.93881   0.72825   0.84946   0.00000  Uiso   1.00
C1292  C     0.93954   0.70610   0.86479   0.00000  Uiso   1.00
H1293  H     0.95472   0.68965   0.86035   0.00000  Uiso   1.00
C1294  C     0.91999   0.70716   0.88515   0.00000  Uiso   1.00
C1295  C     0.95547   0.73456   0.82582   0.00000  Uiso   1.00
C1296  C     0.90450   0.72992   0.88437   0.00000  Uiso   1.00
S1297  S     0.58620   0.85870   0.25053   0.00000  Uiso   1.00
O1298  O     0.52679   0.81996   0.21779   0.00000  Uiso   1.00
O1299  O     0.54968   0.81375   0.25609   0.00000  Uiso   1.00
C1300  C     0.56119   0.84946   0.22825   0.00000  Uiso   1.00
C1301  C     0.56046   0.86479   0.20610   0.00000  Uiso   1.00
H1302  H     0.54528   0.86035   0.18965   0.00000  Uiso   1.00
C1303  C     0.58001   0.88515   0.20716   0.00000  Uiso   1.00
C1304  C     0.54453   0.82582   0.23456   0.00000  Uiso   1.00
C1305  C     0.59550   0.88437   0.22992   0.00000  Uiso   1.00
S1306  S     0.58620   0.35870   0.75053   0.00000  Uiso   1.00
O1307  O     0.52679   0.31996   0.71779   0.00000  Uiso   1.00
O1308  O     0.54968   0.31375   0.75609   0.00000  Uiso   1.00
C1309  C     0.56119   0.34946   0.72825   0.00000  Uiso   1.00
C1310  C     0.56046   0.36479   0.70610   0.00000  Uiso   1.00
H1311  H     0.54528   0.36035   0.68965   0.00000  Uiso   1.00
C1312  C     0.58001   0.38515   0.70716   0.00000  Uiso   1.00
C1313  C     0.54453   0.32582   0.73456   0.00000  Uiso   1.00
C1314  C     0.59550   0.38437   0.72992   0.00000  Uiso   1.00
S1315  S     0.08620   0.85870   0.75053   0.00000  Uiso   1.00
O1316  O     0.02679   0.81996   0.71779   0.00000  Uiso   1.00
O1317  O     0.04968   0.81375   0.75609   0.00000  Uiso   1.00
C1318  C     0.06119   0.84946   0.72825   0.00000  Uiso   1.00
C1319  C     0.06046   0.86479   0.70610   0.00000  Uiso   1.00
H1320  H     0.04528   0.86035   0.68965   0.00000  Uiso   1.00
C1321  C     0.08001   0.88515   0.70716   0.00000  Uiso   1.00
C1322  C     0.04453   0.82582   0.73456   0.00000  Uiso   1.00
C1323  C     0.09550   0.88437   0.72992   0.00000  Uiso   1.00
S1324  S     0.08620   0.35870   0.25053   0.00000  Uiso   1.00
O1325  O     0.02679   0.31996   0.21779   0.00000  Uiso   1.00
O1326  O     0.04968   0.31375   0.25609   0.00000  Uiso   1.00
C1327  C     0.06119   0.34946   0.22825   0.00000  Uiso   1.00
C1328  C     0.06046   0.36479   0.20610   0.00000  Uiso   1.00
H1329  H     0.04528   0.36035   0.18965   0.00000  Uiso   1.00
C1330  C     0.08001   0.38515   0.20716   0.00000  Uiso   1.00
C1331  C     0.04453   0.32582   0.23456   0.00000  Uiso   1.00
C1332  C     0.09550   0.38437   0.22992   0.00000  Uiso   1.00
S1333  S     0.41380   0.14130   0.25053   0.00000  Uiso   1.00
O1334  O     0.47321   0.18004   0.21779   0.00000  Uiso   1.00
O1335  O     0.45032   0.18625   0.25609   0.00000  Uiso   1.00
C1336  C     0.43881   0.15054   0.22825   0.00000  Uiso   1.00
C1337  C     0.43954   0.13521   0.20610   0.00000  Uiso   1.00
H1338  H     0.45472   0.13965   0.18965   0.00000  Uiso   1.00
C1339  C     0.41999   0.11485   0.20716   0.00000  Uiso   1.00
C1340  C     0.45547   0.17418   0.23456   0.00000  Uiso   1.00
C1341  C     0.40450   0.11563   0.22992   0.00000  Uiso   1.00
S1342  S     0.41380   0.64130   0.75053   0.00000  Uiso   1.00
O1343  O     0.47321   0.68004   0.71779   0.00000  Uiso   1.00
O1344  O     0.45032   0.68625   0.75609   0.00000  Uiso   1.00
C1345  C     0.43881   0.65054   0.72825   0.00000  Uiso   1.00
C1346  C     0.43954   0.63521   0.70610   0.00000  Uiso   1.00
H1347  H     0.45472   0.63965   0.68965   0.00000  Uiso   1.00
C1348  C     0.41999   0.61485   0.70716   0.00000  Uiso   1.00
C1349  C     0.45547   0.67418   0.73456   0.00000  Uiso   1.00
C1350  C     0.40450   0.61563   0.72992   0.00000  Uiso   1.00
S1351  S     0.91380   0.14130   0.75053   0.00000  Uiso   1.00
O1352  O     0.97321   0.18004   0.71779   0.00000  Uiso   1.00
O1353  O     0.95032   0.18625   0.75609   0.00000  Uiso   1.00
C1354  C     0.93881   0.15054   0.72825   0.00000  Uiso   1.00
C1355  C     0.93954   0.13521   0.70610   0.00000  Uiso   1.00
H1356  H     0.95472   0.13965   0.68965   0.00000  Uiso   1.00
C1357  C     0.91999   0.11485   0.70716   0.00000  Uiso   1.00
C1358  C     0.95547   0.17418   0.73456   0.00000  Uiso   1.00
C1359  C     0.90450   0.11563   0.72992   0.00000  Uiso   1.00
S1360  S     0.91380   0.64130   0.25053   0.00000  Uiso   1.00
O1361  O     0.97321   0.68004   0.21779   0.00000  Uiso   1.00
O1362  O     0.95032   0.68625   0.25609   0.00000  Uiso   1.00
C1363  C     0.93881   0.65054   0.22825   0.00000  Uiso   1.00
C1364  C     0.93954   0.63521   0.20610   0.00000  Uiso   1.00
H1365  H     0.95472   0.63965   0.18965   0.00000  Uiso   1.00
C1366  C     0.91999   0.61485   0.20716   0.00000  Uiso   1.00
C1367  C     0.95547   0.67418   0.23456   0.00000  Uiso   1.00
C1368  C     0.90450   0.61563   0.22992   0.00000  Uiso   1.00
S1369  S     0.58620   0.14130   0.74947   0.00000  Uiso   1.00
O1370  O     0.52679   0.18004   0.78221   0.00000  Uiso   1.00
O1371  O     0.54968   0.18625   0.74391   0.00000  Uiso   1.00
C1372  C     0.56119   0.15054   0.77175   0.00000  Uiso   1.00
C1373  C     0.56046   0.13521   0.79390   0.00000  Uiso   1.00
H1374  H     0.54528   0.13965   0.81035   0.00000  Uiso   1.00
C1375  C     0.58001   0.11485   0.79284   0.00000  Uiso   1.00
C1376  C     0.54453   0.17418   0.76544   0.00000  Uiso   1.00
C1377  C     0.59550   0.11563   0.77008   0.00000  Uiso   1.00
S1378  S     0.58620   0.64130   0.24947   0.00000  Uiso   1.00
O1379  O     0.52679   0.68004   0.28221   0.00000  Uiso   1.00
O1380  O     0.54968   0.68625   0.24391   0.00000  Uiso   1.00
C1381  C     0.56119   0.65054   0.27175   0.00000  Uiso   1.00
C1382  C     0.56046   0.63521   0.29390   0.00000  Uiso   1.00
H1383  H     0.54528   0.63965   0.31035   0.00000  Uiso   1.00
C1384  C     0.58001   0.61485   0.29284   0.00000  Uiso   1.00
C1385  C     0.54453   0.67418   0.26544   0.00000  Uiso   1.00
C1386  C     0.59550   0.61563   0.27008   0.00000  Uiso   1.00
S1387  S     0.08620   0.14130   0.24947   0.00000  Uiso   1.00
O1388  O     0.02679   0.18004   0.28221   0.00000  Uiso   1.00
O1389  O     0.04968   0.18625   0.24391   0.00000  Uiso   1.00
C1390  C     0.06119   0.15054   0.27175   0.00000  Uiso   1.00
C1391  C     0.06046   0.13521   0.29390   0.00000  Uiso   1.00
H1392  H     0.04528   0.13965   0.31035   0.00000  Uiso   1.00
C1393  C     0.08001   0.11485   0.29284   0.00000  Uiso   1.00
C1394  C     0.04453   0.17418   0.26544   0.00000  Uiso   1.00
C1395  C     0.09550   0.11563   0.27008   0.00000  Uiso   1.00
S1396  S     0.08620   0.64130   0.74947   0.00000  Uiso   1.00
O1397  O     0.02679   0.68004   0.78221   0.00000  Uiso   1.00
O1398  O     0.04968   0.68625   0.74391   0.00000  Uiso   1.00
C1399  C     0.06119   0.65054   0.77175   0.00000  Uiso   1.00
C1400  C     0.06046   0.63521   0.79390   0.00000  Uiso   1.00
H1401  H     0.04528   0.63965   0.81035   0.00000  Uiso   1.00
C1402  C     0.08001   0.61485   0.79284   0.00000  Uiso   1.00
C1403  C     0.04453   0.67418   0.76544   0.00000  Uiso   1.00
C1404  C     0.09550   0.61563   0.77008   0.00000  Uiso   1.00
S1405  S     0.41380   0.85870   0.74947   0.00000  Uiso   1.00
O1406  O     0.47321   0.81996   0.78221   0.00000  Uiso   1.00
O1407  O     0.45032   0.81375   0.74391   0.00000  Uiso   1.00
C1408  C     0.43881   0.84946   0.77175   0.00000  Uiso   1.00
C1409  C     0.43954   0.86479   0.79390   0.00000  Uiso   1.00
H1410  H     0.45472   0.86035   0.81035   0.00000  Uiso   1.00
C1411  C     0.41999   0.88515   0.79284   0.00000  Uiso   1.00
C1412  C     0.45547   0.82582   0.76544   0.00000  Uiso   1.00
C1413  C     0.40450   0.88437   0.77008   0.00000  Uiso   1.00
S1414  S     0.41380   0.35870   0.24947   0.00000  Uiso   1.00
O1415  O     0.47321   0.31996   0.28221   0.00000  Uiso   1.00
O1416  O     0.45032   0.31375   0.24391   0.00000  Uiso   1.00
C1417  C     0.43881   0.34946   0.27175   0.00000  Uiso   1.00
C1418  C     0.43954   0.36479   0.29390   0.00000  Uiso   1.00
H1419  H     0.45472   0.36035   0.31035   0.00000  Uiso   1.00
C1420  C     0.41999   0.38515   0.29284   0.00000  Uiso   1.00
C1421  C     0.45547   0.32582   0.26544   0.00000  Uiso   1.00
C1422  C     0.40450   0.38437   0.27008   0.00000  Uiso   1.00
S1423  S     0.91380   0.85870   0.24947   0.00000  Uiso   1.00
O1424  O     0.97321   0.81996   0.28221   0.00000  Uiso   1.00
O1425  O     0.95032   0.81375   0.24391   0.00000  Uiso   1.00
C1426  C     0.93881   0.84946   0.27175   0.00000  Uiso   1.00
C1427  C     0.93954   0.86479   0.29390   0.00000  Uiso   1.00
H1428  H     0.95472   0.86035   0.31035   0.00000  Uiso   1.00
C1429  C     0.91999   0.88515   0.29284   0.00000  Uiso   1.00
C1430  C     0.95547   0.82582   0.26544   0.00000  Uiso   1.00
C1431  C     0.90450   0.88437   0.27008   0.00000  Uiso   1.00
S1432  S     0.91380   0.35870   0.74947   0.00000  Uiso   1.00
O1433  O     0.97321   0.31996   0.78221   0.00000  Uiso   1.00
O1434  O     0.95032   0.31375   0.74391   0.00000  Uiso   1.00
C1435  C     0.93881   0.34946   0.77175   0.00000  Uiso   1.00
C1436  C     0.93954   0.36479   0.79390   0.00000  Uiso   1.00
H1437  H     0.95472   0.36035   0.81035   0.00000  Uiso   1.00
C1438  C     0.91999   0.38515   0.79284   0.00000  Uiso   1.00
C1439  C     0.95547   0.32582   0.76544   0.00000  Uiso   1.00
C1440  C     0.90450   0.38437   0.77008   0.00000  Uiso   1.00
S1441  S     0.85870   0.74947   0.41380   0.00000  Uiso   1.00
O1442  O     0.81996   0.78221   0.47321   0.00000  Uiso   1.00
O1443  O     0.81375   0.74391   0.45032   0.00000  Uiso   1.00
C1444  C     0.84946   0.77175   0.43881   0.00000  Uiso   1.00
C1445  C     0.86479   0.79390   0.43954   0.00000  Uiso   1.00
H1446  H     0.86035   0.81035   0.45472   0.00000  Uiso   1.00
C1447  C     0.88515   0.79284   0.41999   0.00000  Uiso   1.00
C1448  C     0.82582   0.76544   0.45547   0.00000  Uiso   1.00
C1449  C     0.88437   0.77008   0.40450   0.00000  Uiso   1.00
S1450  S     0.85870   0.24947   0.91380   0.00000  Uiso   1.00
O1451  O     0.81996   0.28221   0.97321   0.00000  Uiso   1.00
O1452  O     0.81375   0.24391   0.95032   0.00000  Uiso   1.00
C1453  C     0.84946   0.27175   0.93881   0.00000  Uiso   1.00
C1454  C     0.86479   0.29390   0.93954   0.00000  Uiso   1.00
H1455  H     0.86035   0.31035   0.95472   0.00000  Uiso   1.00
C1456  C     0.88515   0.29284   0.91999   0.00000  Uiso   1.00
C1457  C     0.82582   0.26544   0.95547   0.00000  Uiso   1.00
C1458  C     0.88437   0.27008   0.90450   0.00000  Uiso   1.00
S1459  S     0.35870   0.74947   0.91380   0.00000  Uiso   1.00
O1460  O     0.31996   0.78221   0.97321   0.00000  Uiso   1.00
O1461  O     0.31375   0.74391   0.95032   0.00000  Uiso   1.00
C1462  C     0.34946   0.77175   0.93881   0.00000  Uiso   1.00
C1463  C     0.36479   0.79390   0.93954   0.00000  Uiso   1.00
H1464  H     0.36035   0.81035   0.95472   0.00000  Uiso   1.00
C1465  C     0.38515   0.79284   0.91999   0.00000  Uiso   1.00
C1466  C     0.32582   0.76544   0.95547   0.00000  Uiso   1.00
C1467  C     0.38437   0.77008   0.90450   0.00000  Uiso   1.00
S1468  S     0.35870   0.24947   0.41380   0.00000  Uiso   1.00
O1469  O     0.31996   0.28221   0.47321   0.00000  Uiso   1.00
O1470  O     0.31375   0.24391   0.45032   0.00000  Uiso   1.00
C1471  C     0.34946   0.27175   0.43881   0.00000  Uiso   1.00
C1472  C     0.36479   0.29390   0.43954   0.00000  Uiso   1.00
H1473  H     0.36035   0.31035   0.45472   0.00000  Uiso   1.00
C1474  C     0.38515   0.29284   0.41999   0.00000  Uiso   1.00
C1475  C     0.32582   0.26544   0.45547   0.00000  Uiso   1.00
C1476  C     0.38437   0.27008   0.40450   0.00000  Uiso   1.00
S1477  S     0.14130   0.74947   0.58620   0.00000  Uiso   1.00
O1478  O     0.18004   0.78221   0.52679   0.00000  Uiso   1.00
O1479  O     0.18625   0.74391   0.54968   0.00000  Uiso   1.00
C1480  C     0.15054   0.77175   0.56119   0.00000  Uiso   1.00
C1481  C     0.13521   0.79390   0.56046   0.00000  Uiso   1.00
H1482  H     0.13965   0.81035   0.54528   0.00000  Uiso   1.00
C1483  C     0.11485   0.79284   0.58001   0.00000  Uiso   1.00
C1484  C     0.17418   0.76544   0.54453   0.00000  Uiso   1.00
C1485  C     0.11563   0.77008   0.59550   0.00000  Uiso   1.00
S1486  S     0.14130   0.24947   0.08620   0.00000  Uiso   1.00
O1487  O     0.18004   0.28221   0.02679   0.00000  Uiso   1.00
O1488  O     0.18625   0.24391   0.04968   0.00000  Uiso   1.00
C1489  C     0.15054   0.27175   0.06119   0.00000  Uiso   1.00
C1490  C     0.13521   0.29390   0.06046   0.00000  Uiso   1.00
H1491  H     0.13965   0.31035   0.04528   0.00000  Uiso   1.00
C1492  C     0.11485   0.29284   0.08001   0.00000  Uiso   1.00
C1493  C     0.17418   0.26544   0.04453   0.00000  Uiso   1.00
C1494  C     0.11563   0.27008   0.09550   0.00000  Uiso   1.00
S1495  S     0.64130   0.74947   0.08620   0.00000  Uiso   1.00
O1496  O     0.68004   0.78221   0.02679   0.00000  Uiso   1.00
O1497  O     0.68625   0.74391   0.04968   0.00000  Uiso   1.00
C1498  C     0.65054   0.77175   0.06119   0.00000  Uiso   1.00
C1499  C     0.63521   0.79390   0.06046   0.00000  Uiso   1.00
H1500  H     0.63965   0.81035   0.04528   0.00000  Uiso   1.00
C1501  C     0.61485   0.79284   0.08001   0.00000  Uiso   1.00
C1502  C     0.67418   0.76544   0.04453   0.00000  Uiso   1.00
C1503  C     0.61563   0.77008   0.09550   0.00000  Uiso   1.00
S1504  S     0.64130   0.24947   0.58620   0.00000  Uiso   1.00
O1505  O     0.68004   0.28221   0.52679   0.00000  Uiso   1.00
O1506  O     0.68625   0.24391   0.54968   0.00000  Uiso   1.00
C1507  C     0.65054   0.27175   0.56119   0.00000  Uiso   1.00
C1508  C     0.63521   0.29390   0.56046   0.00000  Uiso   1.00
H1509  H     0.63965   0.31035   0.54528   0.00000  Uiso   1.00
C1510  C     0.61485   0.29284   0.58001   0.00000  Uiso   1.00
C1511  C     0.67418   0.26544   0.54453   0.00000  Uiso   1.00
C1512  C     0.61563   0.27008   0.59550   0.00000  Uiso   1.00
S1513  S     0.14130   0.25053   0.41380   0.00000  Uiso   1.00
O1514  O     0.18004   0.21779   0.47321   0.00000  Uiso   1.00
O1515  O     0.18625   0.25609   0.45032   0.00000  Uiso   1.00
C1516  C     0.15054   0.22825   0.43881   0.00000  Uiso   1.00
C1517  C     0.13521   0.20610   0.43954   0.00000  Uiso   1.00
H1518  H     0.13965   0.18965   0.45472   0.00000  Uiso   1.00
C1519  C     0.11485   0.20716   0.41999   0.00000  Uiso   1.00
C1520  C     0.17418   0.23456   0.45547   0.00000  Uiso   1.00
C1521  C     0.11563   0.22992   0.40450   0.00000  Uiso   1.00
S1522  S     0.14130   0.75053   0.91380   0.00000  Uiso   1.00
O1523  O     0.18004   0.71779   0.97321   0.00000  Uiso   1.00
O1524  O     0.18625   0.75609   0.95032   0.00000  Uiso   1.00
C1525  C     0.15054   0.72825   0.93881   0.00000  Uiso   1.00
C1526  C     0.13521   0.70610   0.93954   0.00000  Uiso   1.00
H1527  H     0.13965   0.68965   0.95472   0.00000  Uiso   1.00
C1528  C     0.11485   0.70716   0.91999   0.00000  Uiso   1.00
C1529  C     0.17418   0.73456   0.95547   0.00000  Uiso   1.00
C1530  C     0.11563   0.72992   0.90450   0.00000  Uiso   1.00
S1531  S     0.64130   0.25053   0.91380   0.00000  Uiso   1.00
O1532  O     0.68004   0.21779   0.97321   0.00000  Uiso   1.00
O1533  O     0.68625   0.25609   0.95032   0.00000  Uiso   1.00
C1534  C     0.65054   0.22825   0.93881   0.00000  Uiso   1.00
C1535  C     0.63521   0.20610   0.93954   0.00000  Uiso   1.00
H1536  H     0.63965   0.18965   0.95472   0.00000  Uiso   1.00
C1537  C     0.61485   0.20716   0.91999   0.00000  Uiso   1.00
C1538  C     0.67418   0.23456   0.95547   0.00000  Uiso   1.00
C1539  C     0.61563   0.22992   0.90450   0.00000  Uiso   1.00
S1540  S     0.64130   0.75053   0.41380   0.00000  Uiso   1.00
O1541  O     0.68004   0.71779   0.47321   0.00000  Uiso   1.00
O1542  O     0.68625   0.75609   0.45032   0.00000  Uiso   1.00
C1543  C     0.65054   0.72825   0.43881   0.00000  Uiso   1.00
C1544  C     0.63521   0.70610   0.43954   0.00000  Uiso   1.00
H1545  H     0.63965   0.68965   0.45472   0.00000  Uiso   1.00
C1546  C     0.61485   0.70716   0.41999   0.00000  Uiso   1.00
C1547  C     0.67418   0.73456   0.45547   0.00000  Uiso   1.00
C1548  C     0.61563   0.72992   0.40450   0.00000  Uiso   1.00
S1549  S     0.85870   0.25053   0.58620   0.00000  Uiso   1.00
O1550  O     0.81996   0.21779   0.52679   0.00000  Uiso   1.00
O1551  O     0.81375   0.25609   0.54968   0.00000  Uiso   1.00
C1552  C     0.84946   0.22825   0.56119   0.00000  Uiso   1.00
C1553  C     0.86479   0.20610   0.56046   0.00000  Uiso   1.00
H1554  H     0.86035   0.18965   0.54528   0.00000  Uiso   1.00
C1555  C     0.88515   0.20716   0.58001   0.00000  Uiso   1.00
C1556  C     0.82582   0.23456   0.54453   0.00000  Uiso   1.00
C1557  C     0.88437   0.22992   0.59550   0.00000  Uiso   1.00
S1558  S     0.85870   0.75053   0.08620   0.00000  Uiso   1.00
O1559  O     0.81996   0.71779   0.02679   0.00000  Uiso   1.00
O1560  O     0.81375   0.75609   0.04968   0.00000  Uiso   1.00
C1561  C     0.84946   0.72825   0.06119   0.00000  Uiso   1.00
C1562  C     0.86479   0.70610   0.06046   0.00000  Uiso   1.00
H1563  H     0.86035   0.68965   0.04528   0.00000  Uiso   1.00
C1564  C     0.88515   0.70716   0.08001   0.00000  Uiso   1.00
C1565  C     0.82582   0.73456   0.04453   0.00000  Uiso   1.00
C1566  C     0.88437   0.72992   0.09550   0.00000  Uiso   1.00
S1567  S     0.35870   0.25053   0.08620   0.00000  Uiso   1.00
O1568  O     0.31996   0.21779   0.02679   0.00000  Uiso   1.00
O1569  O     0.31375   0.25609   0.04968   0.00000  Uiso   1.00
C1570  C     0.34946   0.22825   0.06119   0.00000  Uiso   1.00
C1571  C     0.36479   0.20610   0.06046   0.00000  Uiso   1.00
H1572  H     0.36035   0.18965   0.04528   0.00000  Uiso   1.00
C1573  C     0.38515   0.20716   0.08001   0.00000  Uiso   1.00
C1574  C     0.32582   0.23456   0.04453   0.00000  Uiso   1.00
C1575  C     0.38437   0.22992   0.09550   0.00000  Uiso   1.00
S1576  S     0.35870   0.75053   0.58620   0.00000  Uiso   1.00
O1577  O     0.31996   0.71779   0.52679   0.00000  Uiso   1.00
O1578  O     0.31375   0.75609   0.54968   0.00000  Uiso   1.00
C1579  C     0.34946   0.72825   0.56119   0.00000  Uiso   1.00
C1580  C     0.36479   0.70610   0.56046   0.00000  Uiso   1.00
H1581  H     0.36035   0.68965   0.54528   0.00000  Uiso   1.00
C1582  C     0.38515   0.70716   0.58001   0.00000  Uiso   1.00
C1583  C     0.32582   0.73456   0.54453   0.00000  Uiso   1.00
C1584  C     0.38437   0.72992   0.59550   0.00000  Uiso   1.00
S1585  S     0.74947   0.58620   0.14130   0.00000  Uiso   1.00
O1586  O     0.78221   0.52679   0.18004   0.00000  Uiso   1.00
O1587  O     0.74391   0.54968   0.18625   0.00000  Uiso   1.00
C1588  C     0.77175   0.56119   0.15054   0.00000  Uiso   1.00
C1589  C     0.79390   0.56046   0.13521   0.00000  Uiso   1.00
H1590  H     0.81035   0.54528   0.13965   0.00000  Uiso   1.00
C1591  C     0.79284   0.58001   0.11485   0.00000  Uiso   1.00
C1592  C     0.76544   0.54453   0.17418   0.00000  Uiso   1.00
C1593  C     0.77008   0.59550   0.11563   0.00000  Uiso   1.00
S1594  S     0.74947   0.08620   0.64130   0.00000  Uiso   1.00
O1595  O     0.78221   0.02679   0.68004   0.00000  Uiso   1.00
O1596  O     0.74391   0.04968   0.68625   0.00000  Uiso   1.00
C1597  C     0.77175   0.06119   0.65054   0.00000  Uiso   1.00
C1598  C     0.79390   0.06046   0.63521   0.00000  Uiso   1.00
H1599  H     0.81035   0.04528   0.63965   0.00000  Uiso   1.00
C1600  C     0.79284   0.08001   0.61485   0.00000  Uiso   1.00
C1601  C     0.76544   0.04453   0.67418   0.00000  Uiso   1.00
C1602  C     0.77008   0.09550   0.61563   0.00000  Uiso   1.00
S1603  S     0.24947   0.58620   0.64130   0.00000  Uiso   1.00
O1604  O     0.28221   0.52679   0.68004   0.00000  Uiso   1.00
O1605  O     0.24391   0.54968   0.68625   0.00000  Uiso   1.00
C1606  C     0.27175   0.56119   0.65054   0.00000  Uiso   1.00
C1607  C     0.29390   0.56046   0.63521   0.00000  Uiso   1.00
H1608  H     0.31035   0.54528   0.63965   0.00000  Uiso   1.00
C1609  C     0.29284   0.58001   0.61485   0.00000  Uiso   1.00
C1610  C     0.26544   0.54453   0.67418   0.00000  Uiso   1.00
C1611  C     0.27008   0.59550   0.61563   0.00000  Uiso   1.00
S1612  S     0.24947   0.08620   0.14130   0.00000  Uiso   1.00
O1613  O     0.28221   0.02679   0.18004   0.00000  Uiso   1.00
O1614  O     0.24391   0.04968   0.18625   0.00000  Uiso   1.00
C1615  C     0.27175   0.06119   0.15054   0.00000  Uiso   1.00
C1616  C     0.29390   0.06046   0.13521   0.00000  Uiso   1.00
H1617  H     0.31035   0.04528   0.13965   0.00000  Uiso   1.00
C1618  C     0.29284   0.08001   0.11485   0.00000  Uiso   1.00
C1619  C     0.26544   0.04453   0.17418   0.00000  Uiso   1.00
C1620  C     0.27008   0.09550   0.11563   0.00000  Uiso   1.00
S1621  S     0.74947   0.41380   0.85870   0.00000  Uiso   1.00
O1622  O     0.78221   0.47321   0.81996   0.00000  Uiso   1.00
O1623  O     0.74391   0.45032   0.81375   0.00000  Uiso   1.00
C1624  C     0.77175   0.43881   0.84946   0.00000  Uiso   1.00
C1625  C     0.79390   0.43954   0.86479   0.00000  Uiso   1.00
H1626  H     0.81035   0.45472   0.86035   0.00000  Uiso   1.00
C1627  C     0.79284   0.41999   0.88515   0.00000  Uiso   1.00
C1628  C     0.76544   0.45547   0.82582   0.00000  Uiso   1.00
C1629  C     0.77008   0.40450   0.88437   0.00000  Uiso   1.00
S1630  S     0.74947   0.91380   0.35870   0.00000  Uiso   1.00
O1631  O     0.78221   0.97321   0.31996   0.00000  Uiso   1.00
O1632  O     0.74391   0.95032   0.31375   0.00000  Uiso   1.00
C1633  C     0.77175   0.93881   0.34946   0.00000  Uiso   1.00
C1634  C     0.79390   0.93954   0.36479   0.00000  Uiso   1.00
H1635  H     0.81035   0.95472   0.36035   0.00000  Uiso   1.00
C1636  C     0.79284   0.91999   0.38515   0.00000  Uiso   1.00
C1637  C     0.76544   0.95547   0.32582   0.00000  Uiso   1.00
C1638  C     0.77008   0.90450   0.38437   0.00000  Uiso   1.00
S1639  S     0.24947   0.41380   0.35870   0.00000  Uiso   1.00
O1640  O     0.28221   0.47321   0.31996   0.00000  Uiso   1.00
O1641  O     0.24391   0.45032   0.31375   0.00000  Uiso   1.00
C1642  C     0.27175   0.43881   0.34946   0.00000  Uiso   1.00
C1643  C     0.29390   0.43954   0.36479   0.00000  Uiso   1.00
H1644  H     0.31035   0.45472   0.36035   0.00000  Uiso   1.00
C1645  C     0.29284   0.41999   0.38515   0.00000  Uiso   1.00
C1646  C     0.26544   0.45547   0.32582   0.00000  Uiso   1.00
C1647  C     0.27008   0.40450   0.38437   0.00000  Uiso   1.00
S1648  S     0.24947   0.91380   0.85870   0.00000  Uiso   1.00
O1649  O     0.28221   0.97321   0.81996   0.00000  Uiso   1.00
O1650  O     0.24391   0.95032   0.81375   0.00000  Uiso   1.00
C1651  C     0.27175   0.93881   0.84946   0.00000  Uiso   1.00
C1652  C     0.29390   0.93954   0.86479   0.00000  Uiso   1.00
H1653  H     0.31035   0.95472   0.86035   0.00000  Uiso   1.00
C1654  C     0.29284   0.91999   0.88515   0.00000  Uiso   1.00
C1655  C     0.26544   0.95547   0.82582   0.00000  Uiso   1.00
C1656  C     0.27008   0.90450   0.88437   0.00000  Uiso   1.00
S1657  S     0.25053   0.58620   0.85870   0.00000  Uiso   1.00
O1658  O     0.21779   0.52679   0.81996   0.00000  Uiso   1.00
O1659  O     0.25609   0.54968   0.81375   0.00000  Uiso   1.00
C1660  C     0.22825   0.56119   0.84946   0.00000  Uiso   1.00
C1661  C     0.20610   0.56046   0.86479   0.00000  Uiso   1.00
H1662  H     0.18965   0.54528   0.86035   0.00000  Uiso   1.00
C1663  C     0.20716   0.58001   0.88515   0.00000  Uiso   1.00
C1664  C     0.23456   0.54453   0.82582   0.00000  Uiso   1.00
C1665  C     0.22992   0.59550   0.88437   0.00000  Uiso   1.00
S1666  S     0.25053   0.08620   0.35870   0.00000  Uiso   1.00
O1667  O     0.21779   0.02679   0.31996   0.00000  Uiso   1.00
O1668  O     0.25609   0.04968   0.31375   0.00000  Uiso   1.00
C1669  C     0.22825   0.06119   0.34946   0.00000  Uiso   1.00
C1670  C     0.20610   0.06046   0.36479   0.00000  Uiso   1.00
H1671  H     0.18965   0.04528   0.36035   0.00000  Uiso   1.00
C1672  C     0.20716   0.08001   0.38515   0.00000  Uiso   1.00
C1673  C     0.23456   0.04453   0.32582   0.00000  Uiso   1.00
C1674  C     0.22992   0.09550   0.38437   0.00000  Uiso   1.00
S1675  S     0.75053   0.58620   0.35870   0.00000  Uiso   1.00
O1676  O     0.71779   0.52679   0.31996   0.00000  Uiso   1.00
O1677  O     0.75609   0.54968   0.31375   0.00000  Uiso   1.00
C1678  C     0.72825   0.56119   0.34946   0.00000  Uiso   1.00
C1679  C     0.70610   0.56046   0.36479   0.00000  Uiso   1.00
H1680  H     0.68965   0.54528   0.36035   0.00000  Uiso   1.00
C1681  C     0.70716   0.58001   0.38515   0.00000  Uiso   1.00
C1682  C     0.73456   0.54453   0.32582   0.00000  Uiso   1.00
C1683  C     0.72992   0.59550   0.38437   0.00000  Uiso   1.00
S1684  S     0.75053   0.08620   0.85870   0.00000  Uiso   1.00
O1685  O     0.71779   0.02679   0.81996   0.00000  Uiso   1.00
O1686  O     0.75609   0.04968   0.81375   0.00000  Uiso   1.00
C1687  C     0.72825   0.06119   0.84946   0.00000  Uiso   1.00
C1688  C     0.70610   0.06046   0.86479   0.00000  Uiso   1.00
H1689  H     0.68965   0.04528   0.86035   0.00000  Uiso   1.00
C1690  C     0.70716   0.08001   0.88515   0.00000  Uiso   1.00
C1691  C     0.73456   0.04453   0.82582   0.00000  Uiso   1.00
C1692  C     0.72992   0.09550   0.88437   0.00000  Uiso   1.00
S1693  S     0.25053   0.41380   0.14130   0.00000  Uiso   1.00
O1694  O     0.21779   0.47321   0.18004   0.00000  Uiso   1.00
O1695  O     0.25609   0.45032   0.18625   0.00000  Uiso   1.00
C1696  C     0.22825   0.43881   0.15054   0.00000  Uiso   1.00
C1697  C     0.20610   0.43954   0.13521   0.00000  Uiso   1.00
H1698  H     0.18965   0.45472   0.13965   0.00000  Uiso   1.00
C1699  C     0.20716   0.41999   0.11485   0.00000  Uiso   1.00
C1700  C     0.23456   0.45547   0.17418   0.00000  Uiso   1.00
C1701  C     0.22992   0.40450   0.11563   0.00000  Uiso   1.00
S1702  S     0.25053   0.91380   0.64130   0.00000  Uiso   1.00
O1703  O     0.21779   0.97321   0.68004   0.00000  Uiso   1.00
O1704  O     0.25609   0.95032   0.68625   0.00000  Uiso   1.00
C1705  C     0.22825   0.93881   0.65054   0.00000  Uiso   1.00
C1706  C     0.20610   0.93954   0.63521   0.00000  Uiso   1.00
H1707  H     0.18965   0.95472   0.63965   0.00000  Uiso   1.00
C1708  C     0.20716   0.91999   0.61485   0.00000  Uiso   1.00
C1709  C     0.23456   0.95547   0.67418   0.00000  Uiso   1.00
C1710  C     0.22992   0.90450   0.61563   0.00000  Uiso   1.00
S1711  S     0.75053   0.41380   0.64130   0.00000  Uiso   1.00
O1712  O     0.71779   0.47321   0.68004   0.00000  Uiso   1.00
O1713  O     0.75609   0.45032   0.68625   0.00000  Uiso   1.00
C1714  C     0.72825   0.43881   0.65054   0.00000  Uiso   1.00
C1715  C     0.70610   0.43954   0.63521   0.00000  Uiso   1.00
H1716  H     0.68965   0.45472   0.63965   0.00000  Uiso   1.00
C1717  C     0.70716   0.41999   0.61485   0.00000  Uiso   1.00
C1718  C     0.73456   0.45547   0.67418   0.00000  Uiso   1.00
C1719  C     0.72992   0.40450   0.61563   0.00000  Uiso   1.00
S1720  S     0.75053   0.91380   0.14130   0.00000  Uiso   1.00
O1721  O     0.71779   0.97321   0.18004   0.00000  Uiso   1.00
O1722  O     0.75609   0.95032   0.18625   0.00000  Uiso   1.00
C1723  C     0.72825   0.93881   0.15054   0.00000  Uiso   1.00
C1724  C     0.70610   0.93954   0.13521   0.00000  Uiso   1.00
H1725  H     0.68965   0.95472   0.13965   0.00000  Uiso   1.00
C1726  C     0.70716   0.91999   0.11485   0.00000  Uiso   1.00
C1727  C     0.73456   0.95547   0.17418   0.00000  Uiso   1.00
C1728  C     0.72992   0.90450   0.11563   0.00000  Uiso   1.00
Zr1729 Zr    0.21513   0.50000   0.21513   0.00000  Uiso   1.00
Zr1730 Zr    0.21513   0.00000   0.71513   0.00000  Uiso   1.00
Zr1731 Zr    0.71513   0.50000   0.71513   0.00000  Uiso   1.00
Zr1732 Zr    0.71513   0.00000   0.21513   0.00000  Uiso   1.00
Zr1733 Zr    0.78487   0.50000   0.21513   0.00000  Uiso   1.00
Zr1734 Zr    0.78487   0.00000   0.71513   0.00000  Uiso   1.00
Zr1735 Zr    0.28487   0.50000   0.71513   0.00000  Uiso   1.00
Zr1736 Zr    0.28487   0.00000   0.21513   0.00000  Uiso   1.00
Zr1737 Zr    0.78487   0.50000   0.78487   0.00000  Uiso   1.00
Zr1738 Zr    0.78487   0.00000   0.28487   0.00000  Uiso   1.00
Zr1739 Zr    0.28487   0.50000   0.28487   0.00000  Uiso   1.00
Zr1740 Zr    0.28487   0.00000   0.78487   0.00000  Uiso   1.00
Zr1741 Zr    0.21513   0.50000   0.78487   0.00000  Uiso   1.00
Zr1742 Zr    0.21513   0.00000   0.28487   0.00000  Uiso   1.00
Zr1743 Zr    0.71513   0.50000   0.28487   0.00000  Uiso   1.00
Zr1744 Zr    0.71513   0.00000   0.78487   0.00000  Uiso   1.00
Zr1745 Zr    0.21513   0.21513   0.50000   0.00000  Uiso   1.00
Zr1746 Zr    0.21513   0.71513   0.00000   0.00000  Uiso   1.00
Zr1747 Zr    0.71513   0.21513   0.00000   0.00000  Uiso   1.00
Zr1748 Zr    0.71513   0.71513   0.50000   0.00000  Uiso   1.00
Zr1749 Zr    0.21513   0.78487   0.50000   0.00000  Uiso   1.00
Zr1750 Zr    0.21513   0.28487   0.00000   0.00000  Uiso   1.00
Zr1751 Zr    0.71513   0.78487   0.00000   0.00000  Uiso   1.00
Zr1752 Zr    0.71513   0.28487   0.50000   0.00000  Uiso   1.00
Zr1753 Zr    0.78487   0.78487   0.50000   0.00000  Uiso   1.00
Zr1754 Zr    0.78487   0.28487   0.00000   0.00000  Uiso   1.00
Zr1755 Zr    0.28487   0.78487   0.00000   0.00000  Uiso   1.00
Zr1756 Zr    0.28487   0.28487   0.50000   0.00000  Uiso   1.00
Zr1757 Zr    0.78487   0.21513   0.50000   0.00000  Uiso   1.00
Zr1758 Zr    0.78487   0.71513   0.00000   0.00000  Uiso   1.00
Zr1759 Zr    0.28487   0.21513   0.00000   0.00000  Uiso   1.00
Zr1760 Zr    0.28487   0.71513   0.50000   0.00000  Uiso   1.00
Zr1761 Zr    0.50000   0.21513   0.21513   0.00000  Uiso   1.00
Zr1762 Zr    0.50000   0.71513   0.71513   0.00000  Uiso   1.00
Zr1763 Zr    0.00000   0.21513   0.71513   0.00000  Uiso   1.00
Zr1764 Zr    0.00000   0.71513   0.21513   0.00000  Uiso   1.00
Zr1765 Zr    0.50000   0.21513   0.78487   0.00000  Uiso   1.00
Zr1766 Zr    0.50000   0.71513   0.28487   0.00000  Uiso   1.00
Zr1767 Zr    0.00000   0.21513   0.28487   0.00000  Uiso   1.00
Zr1768 Zr    0.00000   0.71513   0.78487   0.00000  Uiso   1.00
Zr1769 Zr    0.50000   0.78487   0.78487   0.00000  Uiso   1.00
Zr1770 Zr    0.50000   0.28487   0.28487   0.00000  Uiso   1.00
Zr1771 Zr    0.00000   0.78487   0.28487   0.00000  Uiso   1.00
Zr1772 Zr    0.00000   0.28487   0.78487   0.00000  Uiso   1.00
Zr1773 Zr    0.50000   0.78487   0.21513   0.00000  Uiso   1.00
Zr1774 Zr    0.50000   0.28487   0.71513   0.00000  Uiso   1.00
Zr1775 Zr    0.00000   0.78487   0.71513   0.00000  Uiso   1.00
Zr1776 Zr    0.00000   0.28487   0.21513   0.00000  Uiso   1.00
Zr1777 Zr    0.22503   0.46460   0.27497   0.00000  Uiso   1.00
O1778  O     0.22713   0.42122   0.27287   0.00000  Uiso   1.00
O1779  O     0.19427   0.46647   0.30573   0.00000  Uiso   1.00
Zr1780 Zr    0.22503   0.96460   0.77497   0.00000  Uiso   1.00
O1781  O     0.22713   0.92122   0.77287   0.00000  Uiso   1.00
O1782  O     0.19427   0.96647   0.80573   0.00000  Uiso   1.00
Zr1783 Zr    0.77497   0.53540   0.27497   0.00000  Uiso   1.00
O1784  O     0.77287   0.57878   0.27287   0.00000  Uiso   1.00
O1785  O     0.80573   0.53353   0.30573   0.00000  Uiso   1.00
Zr1786 Zr    0.77497   0.03540   0.77497   0.00000  Uiso   1.00
O1787  O     0.77287   0.07878   0.77287   0.00000  Uiso   1.00
O1788  O     0.80573   0.03353   0.80573   0.00000  Uiso   1.00
Zr1789 Zr    0.27497   0.03540   0.27497   0.00000  Uiso   1.00
O1790  O     0.27287   0.07878   0.27287   0.00000  Uiso   1.00
O1791  O     0.30573   0.03353   0.30573   0.00000  Uiso   1.00
Zr1792 Zr    0.77497   0.46460   0.72503   0.00000  Uiso   1.00
O1793  O     0.77287   0.42122   0.72713   0.00000  Uiso   1.00
O1794  O     0.80573   0.46647   0.69427   0.00000  Uiso   1.00
Zr1795 Zr    0.77497   0.96460   0.22503   0.00000  Uiso   1.00
O1796  O     0.77287   0.92122   0.22713   0.00000  Uiso   1.00
O1797  O     0.80573   0.96647   0.19427   0.00000  Uiso   1.00
Zr1798 Zr    0.27497   0.46460   0.22503   0.00000  Uiso   1.00
O1799  O     0.27287   0.42122   0.22713   0.00000  Uiso   1.00
O1800  O     0.30573   0.46647   0.19427   0.00000  Uiso   1.00
Zr1801 Zr    0.22503   0.53540   0.72503   0.00000  Uiso   1.00
O1802  O     0.22713   0.57878   0.72713   0.00000  Uiso   1.00
O1803  O     0.19427   0.53353   0.69427   0.00000  Uiso   1.00
Zr1804 Zr    0.22503   0.03540   0.22503   0.00000  Uiso   1.00
O1805  O     0.22713   0.07878   0.22713   0.00000  Uiso   1.00
O1806  O     0.19427   0.03353   0.19427   0.00000  Uiso   1.00
Zr1807 Zr    0.27497   0.22503   0.46460   0.00000  Uiso   1.00
O1808  O     0.27287   0.22713   0.42122   0.00000  Uiso   1.00
O1809  O     0.30573   0.19427   0.46647   0.00000  Uiso   1.00
Zr1810 Zr    0.27497   0.72503   0.96460   0.00000  Uiso   1.00
O1811  O     0.27287   0.72713   0.92122   0.00000  Uiso   1.00
O1812  O     0.30573   0.69427   0.96647   0.00000  Uiso   1.00
Zr1813 Zr    0.27497   0.77497   0.53540   0.00000  Uiso   1.00
O1814  O     0.27287   0.77287   0.57878   0.00000  Uiso   1.00
O1815  O     0.30573   0.80573   0.53353   0.00000  Uiso   1.00
Zr1816 Zr    0.27497   0.27497   0.03540   0.00000  Uiso   1.00
O1817  O     0.27287   0.27287   0.07878   0.00000  Uiso   1.00
O1818  O     0.30573   0.30573   0.03353   0.00000  Uiso   1.00
Zr1819 Zr    0.72503   0.77497   0.46460   0.00000  Uiso   1.00
O1820  O     0.72713   0.77287   0.42122   0.00000  Uiso   1.00
O1821  O     0.69427   0.80573   0.46647   0.00000  Uiso   1.00
Zr1822 Zr    0.72503   0.27497   0.96460   0.00000  Uiso   1.00
O1823  O     0.72713   0.27287   0.92122   0.00000  Uiso   1.00
O1824  O     0.69427   0.30573   0.96647   0.00000  Uiso   1.00
Zr1825 Zr    0.22503   0.27497   0.46460   0.00000  Uiso   1.00
O1826  O     0.22713   0.27287   0.42122   0.00000  Uiso   1.00
O1827  O     0.19427   0.30573   0.46647   0.00000  Uiso   1.00
Zr1828 Zr    0.72503   0.22503   0.53540   0.00000  Uiso   1.00
O1829  O     0.72713   0.22713   0.57878   0.00000  Uiso   1.00
O1830  O     0.69427   0.19427   0.53353   0.00000  Uiso   1.00
Zr1831 Zr    0.72503   0.72503   0.03540   0.00000  Uiso   1.00
O1832  O     0.72713   0.72713   0.07878   0.00000  Uiso   1.00
O1833  O     0.69427   0.69427   0.03353   0.00000  Uiso   1.00
Zr1834 Zr    0.22503   0.22503   0.03540   0.00000  Uiso   1.00
O1835  O     0.22713   0.22713   0.07878   0.00000  Uiso   1.00
O1836  O     0.19427   0.19427   0.03353   0.00000  Uiso   1.00
Zr1837 Zr    0.46460   0.27497   0.22503   0.00000  Uiso   1.00
O1838  O     0.42122   0.27287   0.22713   0.00000  Uiso   1.00
O1839  O     0.46647   0.30573   0.19427   0.00000  Uiso   1.00
Zr1840 Zr    0.96460   0.27497   0.72503   0.00000  Uiso   1.00
O1841  O     0.92122   0.27287   0.72713   0.00000  Uiso   1.00
O1842  O     0.96647   0.30573   0.69427   0.00000  Uiso   1.00
Zr1843 Zr    0.53540   0.27497   0.77497   0.00000  Uiso   1.00
O1844  O     0.57878   0.27287   0.77287   0.00000  Uiso   1.00
O1845  O     0.53353   0.30573   0.80573   0.00000  Uiso   1.00
Zr1846 Zr    0.03540   0.27497   0.27497   0.00000  Uiso   1.00
O1847  O     0.07878   0.27287   0.27287   0.00000  Uiso   1.00
O1848  O     0.03353   0.30573   0.30573   0.00000  Uiso   1.00
Zr1849 Zr    0.46460   0.72503   0.77497   0.00000  Uiso   1.00
O1850  O     0.42122   0.72713   0.77287   0.00000  Uiso   1.00
O1851  O     0.46647   0.69427   0.80573   0.00000  Uiso   1.00
Zr1852 Zr    0.46460   0.22503   0.27497   0.00000  Uiso   1.00
O1853  O     0.42122   0.22713   0.27287   0.00000  Uiso   1.00
O1854  O     0.46647   0.19427   0.30573   0.00000  Uiso   1.00
Zr1855 Zr    0.96460   0.72503   0.27497   0.00000  Uiso   1.00
O1856  O     0.92122   0.72713   0.27287   0.00000  Uiso   1.00
O1857  O     0.96647   0.69427   0.30573   0.00000  Uiso   1.00
Zr1858 Zr    0.53540   0.72503   0.22503   0.00000  Uiso   1.00
O1859  O     0.57878   0.72713   0.22713   0.00000  Uiso   1.00
O1860  O     0.53353   0.69427   0.19427   0.00000  Uiso   1.00
Zr1861 Zr    0.03540   0.72503   0.72503   0.00000  Uiso   1.00
O1862  O     0.07878   0.72713   0.72713   0.00000  Uiso   1.00
O1863  O     0.03353   0.69427   0.69427   0.00000  Uiso   1.00
Zr1864 Zr    0.03540   0.22503   0.22503   0.00000  Uiso   1.00
O1865  O     0.07878   0.22713   0.22713   0.00000  Uiso   1.00
O1866  O     0.03353   0.19427   0.19427   0.00000  Uiso   1.00
Zr1867 Zr    0.46460   0.22503   0.72503   0.00000  Uiso   1.00
O1868  O     0.42122   0.22713   0.72713   0.00000  Uiso   1.00
O1869  O     0.46647   0.19427   0.69427   0.00000  Uiso   1.00
Zr1870 Zr    0.96460   0.22503   0.22503   0.00000  Uiso   1.00
O1871  O     0.92122   0.22713   0.22713   0.00000  Uiso   1.00
O1872  O     0.96647   0.19427   0.19427   0.00000  Uiso   1.00
Zr1873 Zr    0.53540   0.77497   0.72503   0.00000  Uiso   1.00
O1874  O     0.57878   0.77287   0.72713   0.00000  Uiso   1.00
O1875  O     0.53353   0.80573   0.69427   0.00000  Uiso   1.00
Zr1876 Zr    0.53540   0.27497   0.22503   0.00000  Uiso   1.00
O1877  O     0.57878   0.27287   0.22713   0.00000  Uiso   1.00
O1878  O     0.53353   0.30573   0.19427   0.00000  Uiso   1.00
Zr1879 Zr    0.03540   0.77497   0.22503   0.00000  Uiso   1.00
O1880  O     0.07878   0.77287   0.22713   0.00000  Uiso   1.00
O1881  O     0.03353   0.80573   0.19427   0.00000  Uiso   1.00
Zr1882 Zr    0.46460   0.77497   0.27497   0.00000  Uiso   1.00
O1883  O     0.42122   0.77287   0.27287   0.00000  Uiso   1.00
O1884  O     0.46647   0.80573   0.30573   0.00000  Uiso   1.00
Zr1885 Zr    0.96460   0.77497   0.77497   0.00000  Uiso   1.00
O1886  O     0.92122   0.77287   0.77287   0.00000  Uiso   1.00
O1887  O     0.96647   0.80573   0.80573   0.00000  Uiso   1.00
Zr1888 Zr    0.96460   0.27497   0.27497   0.00000  Uiso   1.00
O1889  O     0.92122   0.27287   0.27287   0.00000  Uiso   1.00
O1890  O     0.96647   0.30573   0.30573   0.00000  Uiso   1.00
Zr1891 Zr    0.53540   0.22503   0.27497   0.00000  Uiso   1.00
O1892  O     0.57878   0.22713   0.27287   0.00000  Uiso   1.00
O1893  O     0.53353   0.19427   0.30573   0.00000  Uiso   1.00
Zr1894 Zr    0.03540   0.22503   0.77497   0.00000  Uiso   1.00
O1895  O     0.07878   0.22713   0.77287   0.00000  Uiso   1.00
O1896  O     0.03353   0.19427   0.80573   0.00000  Uiso   1.00
Zr1897 Zr    0.22503   0.27497   0.53540   0.00000  Uiso   1.00
O1898  O     0.22713   0.27287   0.57878   0.00000  Uiso   1.00
O1899  O     0.19427   0.30573   0.53353   0.00000  Uiso   1.00
Zr1900 Zr    0.22503   0.77497   0.03540   0.00000  Uiso   1.00
O1901  O     0.22713   0.77287   0.07878   0.00000  Uiso   1.00
O1902  O     0.19427   0.80573   0.03353   0.00000  Uiso   1.00
Zr1903 Zr    0.77497   0.27497   0.46460   0.00000  Uiso   1.00
O1904  O     0.77287   0.27287   0.42122   0.00000  Uiso   1.00
O1905  O     0.80573   0.30573   0.46647   0.00000  Uiso   1.00
Zr1906 Zr    0.77497   0.77497   0.96460   0.00000  Uiso   1.00
O1907  O     0.77287   0.77287   0.92122   0.00000  Uiso   1.00
O1908  O     0.80573   0.80573   0.96647   0.00000  Uiso   1.00
Zr1909 Zr    0.27497   0.27497   0.96460   0.00000  Uiso   1.00
O1910  O     0.27287   0.27287   0.92122   0.00000  Uiso   1.00
O1911  O     0.30573   0.30573   0.96647   0.00000  Uiso   1.00
Zr1912 Zr    0.77497   0.72503   0.53540   0.00000  Uiso   1.00
O1913  O     0.77287   0.72713   0.57878   0.00000  Uiso   1.00
O1914  O     0.80573   0.69427   0.53353   0.00000  Uiso   1.00
Zr1915 Zr    0.77497   0.22503   0.03540   0.00000  Uiso   1.00
O1916  O     0.77287   0.22713   0.07878   0.00000  Uiso   1.00
O1917  O     0.80573   0.19427   0.03353   0.00000  Uiso   1.00
Zr1918 Zr    0.27497   0.22503   0.53540   0.00000  Uiso   1.00
O1919  O     0.27287   0.22713   0.57878   0.00000  Uiso   1.00
O1920  O     0.30573   0.19427   0.53353   0.00000  Uiso   1.00
Zr1921 Zr    0.22503   0.72503   0.46460   0.00000  Uiso   1.00
O1922  O     0.22713   0.72713   0.42122   0.00000  Uiso   1.00
O1923  O     0.19427   0.69427   0.46647   0.00000  Uiso   1.00
Zr1924 Zr    0.22503   0.22503   0.96460   0.00000  Uiso   1.00
O1925  O     0.22713   0.22713   0.92122   0.00000  Uiso   1.00
O1926  O     0.19427   0.19427   0.96647   0.00000  Uiso   1.00
Zr1927 Zr    0.27497   0.46460   0.77497   0.00000  Uiso   1.00
O1928  O     0.27287   0.42122   0.77287   0.00000  Uiso   1.00
O1929  O     0.30573   0.46647   0.80573   0.00000  Uiso   1.00
Zr1930 Zr    0.27497   0.96460   0.27497   0.00000  Uiso   1.00
O1931  O     0.27287   0.92122   0.27287   0.00000  Uiso   1.00
O1932  O     0.30573   0.96647   0.30573   0.00000  Uiso   1.00
Zr1933 Zr    0.27497   0.53540   0.22503   0.00000  Uiso   1.00
O1934  O     0.27287   0.57878   0.22713   0.00000  Uiso   1.00
O1935  O     0.30573   0.53353   0.19427   0.00000  Uiso   1.00
Zr1936 Zr    0.27497   0.03540   0.72503   0.00000  Uiso   1.00
O1937  O     0.27287   0.07878   0.72713   0.00000  Uiso   1.00
O1938  O     0.30573   0.03353   0.69427   0.00000  Uiso   1.00
Zr1939 Zr    0.72503   0.46460   0.22503   0.00000  Uiso   1.00
O1940  O     0.72713   0.42122   0.22713   0.00000  Uiso   1.00
O1941  O     0.69427   0.46647   0.19427   0.00000  Uiso   1.00
Zr1942 Zr    0.72503   0.96460   0.72503   0.00000  Uiso   1.00
O1943  O     0.72713   0.92122   0.72713   0.00000  Uiso   1.00
O1944  O     0.69427   0.96647   0.69427   0.00000  Uiso   1.00
Zr1945 Zr    0.22503   0.96460   0.22503   0.00000  Uiso   1.00
O1946  O     0.22713   0.92122   0.22713   0.00000  Uiso   1.00
O1947  O     0.19427   0.96647   0.19427   0.00000  Uiso   1.00
Zr1948 Zr    0.72503   0.53540   0.77497   0.00000  Uiso   1.00
O1949  O     0.72713   0.57878   0.77287   0.00000  Uiso   1.00
O1950  O     0.69427   0.53353   0.80573   0.00000  Uiso   1.00
Zr1951 Zr    0.72503   0.03540   0.27497   0.00000  Uiso   1.00
O1952  O     0.72713   0.07878   0.27287   0.00000  Uiso   1.00
O1953  O     0.69427   0.03353   0.30573   0.00000  Uiso   1.00
Zr1954 Zr    0.22503   0.53540   0.27497   0.00000  Uiso   1.00
O1955  O     0.22713   0.57878   0.27287   0.00000  Uiso   1.00
O1956  O     0.19427   0.53353   0.30573   0.00000  Uiso   1.00
Zr1957 Zr    0.77497   0.53540   0.72503   0.00000  Uiso   1.00
O1958  O     0.77287   0.57878   0.72713   0.00000  Uiso   1.00
O1959  O     0.80573   0.53353   0.69427   0.00000  Uiso   1.00
Zr1960 Zr    0.77497   0.03540   0.22503   0.00000  Uiso   1.00
O1961  O     0.77287   0.07878   0.22713   0.00000  Uiso   1.00
O1962  O     0.80573   0.03353   0.19427   0.00000  Uiso   1.00
Zr1963 Zr    0.22503   0.46460   0.72503   0.00000  Uiso   1.00
O1964  O     0.22713   0.42122   0.72713   0.00000  Uiso   1.00
O1965  O     0.19427   0.46647   0.69427   0.00000  Uiso   1.00
Zr1966 Zr    0.22503   0.03540   0.77497   0.00000  Uiso   1.00
O1967  O     0.22713   0.07878   0.77287   0.00000  Uiso   1.00
O1968  O     0.19427   0.03353   0.80573   0.00000  Uiso   1.00
Zr1969 Zr    0.77497   0.46460   0.27497   0.00000  Uiso   1.00
O1970  O     0.77287   0.42122   0.27287   0.00000  Uiso   1.00
O1971  O     0.80573   0.46647   0.30573   0.00000  Uiso   1.00
Zr1972 Zr    0.77497   0.96460   0.77497   0.00000  Uiso   1.00
O1973  O     0.77287   0.92122   0.77287   0.00000  Uiso   1.00
O1974  O     0.80573   0.96647   0.80573   0.00000  Uiso   1.00
Zr1975 Zr    0.72503   0.77497   0.53540   0.00000  Uiso   1.00
O1976  O     0.72713   0.77287   0.57878   0.00000  Uiso   1.00
O1977  O     0.69427   0.80573   0.53353   0.00000  Uiso   1.00
Zr1978 Zr    0.72503   0.27497   0.03540   0.00000  Uiso   1.00
O1979  O     0.72713   0.27287   0.07878   0.00000  Uiso   1.00
O1980  O     0.69427   0.30573   0.03353   0.00000  Uiso   1.00
Zr1981 Zr    0.72503   0.22503   0.46460   0.00000  Uiso   1.00
O1982  O     0.72713   0.22713   0.42122   0.00000  Uiso   1.00
O1983  O     0.69427   0.19427   0.46647   0.00000  Uiso   1.00
Zr1984 Zr    0.72503   0.72503   0.96460   0.00000  Uiso   1.00
O1985  O     0.72713   0.72713   0.92122   0.00000  Uiso   1.00
O1986  O     0.69427   0.69427   0.96647   0.00000  Uiso   1.00
Zr1987 Zr    0.27497   0.72503   0.03540   0.00000  Uiso   1.00
O1988  O     0.27287   0.72713   0.07878   0.00000  Uiso   1.00
O1989  O     0.30573   0.69427   0.03353   0.00000  Uiso   1.00
Zr1990 Zr    0.27497   0.77497   0.46460   0.00000  Uiso   1.00
O1991  O     0.27287   0.77287   0.42122   0.00000  Uiso   1.00
O1992  O     0.30573   0.80573   0.46647   0.00000  Uiso   1.00
Zr1993 Zr    0.53540   0.72503   0.77497   0.00000  Uiso   1.00
O1994  O     0.57878   0.72713   0.77287   0.00000  Uiso   1.00
O1995  O     0.53353   0.69427   0.80573   0.00000  Uiso   1.00
Zr1996 Zr    0.03540   0.72503   0.27497   0.00000  Uiso   1.00
O1997  O     0.07878   0.72713   0.27287   0.00000  Uiso   1.00
O1998  O     0.03353   0.69427   0.30573   0.00000  Uiso   1.00
Zr1999 Zr    0.46460   0.72503   0.22503   0.00000  Uiso   1.00
O2000  O     0.42122   0.72713   0.22713   0.00000  Uiso   1.00
O2001  O     0.46647   0.69427   0.19427   0.00000  Uiso   1.00
Zr2002 Zr    0.96460   0.72503   0.72503   0.00000  Uiso   1.00
O2003  O     0.92122   0.72713   0.72713   0.00000  Uiso   1.00
O2004  O     0.96647   0.69427   0.69427   0.00000  Uiso   1.00
Zr2005 Zr    0.03540   0.27497   0.72503   0.00000  Uiso   1.00
O2006  O     0.07878   0.27287   0.72713   0.00000  Uiso   1.00
O2007  O     0.03353   0.30573   0.69427   0.00000  Uiso   1.00
Zr2008 Zr    0.46460   0.27497   0.77497   0.00000  Uiso   1.00
O2009  O     0.42122   0.27287   0.77287   0.00000  Uiso   1.00
O2010  O     0.46647   0.30573   0.80573   0.00000  Uiso   1.00
Zr2011 Zr    0.53540   0.77497   0.27497   0.00000  Uiso   1.00
O2012  O     0.57878   0.77287   0.27287   0.00000  Uiso   1.00
O2013  O     0.53353   0.80573   0.30573   0.00000  Uiso   1.00
Zr2014 Zr    0.03540   0.77497   0.77497   0.00000  Uiso   1.00
O2015  O     0.07878   0.77287   0.77287   0.00000  Uiso   1.00
O2016  O     0.03353   0.80573   0.80573   0.00000  Uiso   1.00
Zr2017 Zr    0.96460   0.22503   0.77497   0.00000  Uiso   1.00
O2018  O     0.92122   0.22713   0.77287   0.00000  Uiso   1.00
O2019  O     0.96647   0.19427   0.80573   0.00000  Uiso   1.00
Zr2020 Zr    0.53540   0.22503   0.72503   0.00000  Uiso   1.00
O2021  O     0.57878   0.22713   0.72713   0.00000  Uiso   1.00
O2022  O     0.53353   0.19427   0.69427   0.00000  Uiso   1.00
Zr2023 Zr    0.46460   0.77497   0.72503   0.00000  Uiso   1.00
O2024  O     0.42122   0.77287   0.72713   0.00000  Uiso   1.00
O2025  O     0.46647   0.80573   0.69427   0.00000  Uiso   1.00
Zr2026 Zr    0.96460   0.77497   0.22503   0.00000  Uiso   1.00
O2027  O     0.92122   0.77287   0.22713   0.00000  Uiso   1.00
O2028  O     0.96647   0.80573   0.19427   0.00000  Uiso   1.00
Zr2029 Zr    0.77497   0.72503   0.46460   0.00000  Uiso   1.00
O2030  O     0.77287   0.72713   0.42122   0.00000  Uiso   1.00
O2031  O     0.80573   0.69427   0.46647   0.00000  Uiso   1.00
Zr2032 Zr    0.77497   0.22503   0.96460   0.00000  Uiso   1.00
O2033  O     0.77287   0.22713   0.92122   0.00000  Uiso   1.00
O2034  O     0.80573   0.19427   0.96647   0.00000  Uiso   1.00
Zr2035 Zr    0.22503   0.72503   0.53540   0.00000  Uiso   1.00
O2036  O     0.22713   0.72713   0.57878   0.00000  Uiso   1.00
O2037  O     0.19427   0.69427   0.53353   0.00000  Uiso   1.00
Zr2038 Zr    0.22503   0.77497   0.96460   0.00000  Uiso   1.00
O2039  O     0.22713   0.77287   0.92122   0.00000  Uiso   1.00
O2040  O     0.19427   0.80573   0.96647   0.00000  Uiso   1.00
Zr2041 Zr    0.77497   0.27497   0.53540   0.00000  Uiso   1.00
O2042  O     0.77287   0.27287   0.57878   0.00000  Uiso   1.00
O2043  O     0.80573   0.30573   0.53353   0.00000  Uiso   1.00
Zr2044 Zr    0.77497   0.77497   0.03540   0.00000  Uiso   1.00
O2045  O     0.77287   0.77287   0.07878   0.00000  Uiso   1.00
O2046  O     0.80573   0.80573   0.03353   0.00000  Uiso   1.00
Zr2047 Zr    0.72503   0.53540   0.22503   0.00000  Uiso   1.00
O2048  O     0.72713   0.57878   0.22713   0.00000  Uiso   1.00
O2049  O     0.69427   0.53353   0.19427   0.00000  Uiso   1.00
Zr2050 Zr    0.72503   0.03540   0.72503   0.00000  Uiso   1.00
O2051  O     0.72713   0.07878   0.72713   0.00000  Uiso   1.00
O2052  O     0.69427   0.03353   0.69427   0.00000  Uiso   1.00
Zr2053 Zr    0.72503   0.46460   0.77497   0.00000  Uiso   1.00
O2054  O     0.72713   0.42122   0.77287   0.00000  Uiso   1.00
O2055  O     0.69427   0.46647   0.80573   0.00000  Uiso   1.00
Zr2056 Zr    0.72503   0.96460   0.27497   0.00000  Uiso   1.00
O2057  O     0.72713   0.92122   0.27287   0.00000  Uiso   1.00
O2058  O     0.69427   0.96647   0.30573   0.00000  Uiso   1.00
Zr2059 Zr    0.27497   0.53540   0.77497   0.00000  Uiso   1.00
O2060  O     0.27287   0.57878   0.77287   0.00000  Uiso   1.00
O2061  O     0.30573   0.53353   0.80573   0.00000  Uiso   1.00
Zr2062 Zr    0.27497   0.96460   0.72503   0.00000  Uiso   1.00
O2063  O     0.27287   0.92122   0.72713   0.00000  Uiso   1.00
O2064  O     0.30573   0.96647   0.69427   0.00000  Uiso   1.00
S2065  S     0.08942   0.41058   0.18539   0.00000  Uiso   1.00
S2066  S     0.08942   0.91058   0.68539   0.00000  Uiso   1.00
S2067  S     0.91058   0.58942   0.18539   0.00000  Uiso   1.00
S2068  S     0.91058   0.08942   0.68539   0.00000  Uiso   1.00
S2069  S     0.41058   0.08942   0.18539   0.00000  Uiso   1.00
S2070  S     0.91058   0.41058   0.81461   0.00000  Uiso   1.00
S2071  S     0.91058   0.91058   0.31461   0.00000  Uiso   1.00
S2072  S     0.41058   0.41058   0.31461   0.00000  Uiso   1.00
S2073  S     0.08942   0.58942   0.81461   0.00000  Uiso   1.00
S2074  S     0.08942   0.08942   0.31461   0.00000  Uiso   1.00
S2075  S     0.18539   0.08942   0.41058   0.00000  Uiso   1.00
S2076  S     0.68539   0.08942   0.91058   0.00000  Uiso   1.00
S2077  S     0.18539   0.91058   0.58942   0.00000  Uiso   1.00
S2078  S     0.18539   0.41058   0.08942   0.00000  Uiso   1.00
S2079  S     0.68539   0.91058   0.08942   0.00000  Uiso   1.00
S2080  S     0.81461   0.91058   0.41058   0.00000  Uiso   1.00
S2081  S     0.31461   0.91058   0.91058   0.00000  Uiso   1.00
S2082  S     0.31461   0.41058   0.41058   0.00000  Uiso   1.00
S2083  S     0.81461   0.08942   0.58942   0.00000  Uiso   1.00
S2084  S     0.31461   0.08942   0.08942   0.00000  Uiso   1.00
S2085  S     0.41058   0.18539   0.08942   0.00000  Uiso   1.00
S2086  S     0.41058   0.68539   0.58942   0.00000  Uiso   1.00
S2087  S     0.58942   0.18539   0.91058   0.00000  Uiso   1.00
S2088  S     0.58942   0.68539   0.41058   0.00000  Uiso   1.00
S2089  S     0.08942   0.18539   0.41058   0.00000  Uiso   1.00
S2090  S     0.41058   0.81461   0.91058   0.00000  Uiso   1.00
S2091  S     0.41058   0.31461   0.41058   0.00000  Uiso   1.00
S2092  S     0.58942   0.81461   0.08942   0.00000  Uiso   1.00
S2093  S     0.58942   0.31461   0.58942   0.00000  Uiso   1.00
S2094  S     0.08942   0.31461   0.08942   0.00000  Uiso   1.00
S2095  S     0.41058   0.08942   0.81461   0.00000  Uiso   1.00
S2096  S     0.41058   0.58942   0.31461   0.00000  Uiso   1.00
S2097  S     0.58942   0.91058   0.81461   0.00000  Uiso   1.00
S2098  S     0.58942   0.41058   0.31461   0.00000  Uiso   1.00
S2099  S     0.08942   0.41058   0.81461   0.00000  Uiso   1.00
S2100  S     0.41058   0.91058   0.18539   0.00000  Uiso   1.00
S2101  S     0.41058   0.41058   0.68539   0.00000  Uiso   1.00
S2102  S     0.58942   0.08942   0.18539   0.00000  Uiso   1.00
S2103  S     0.58942   0.58942   0.68539   0.00000  Uiso   1.00
S2104  S     0.08942   0.08942   0.68539   0.00000  Uiso   1.00
S2105  S     0.08942   0.18539   0.58942   0.00000  Uiso   1.00
S2106  S     0.08942   0.68539   0.08942   0.00000  Uiso   1.00
S2107  S     0.91058   0.18539   0.41058   0.00000  Uiso   1.00
S2108  S     0.91058   0.68539   0.91058   0.00000  Uiso   1.00
S2109  S     0.41058   0.68539   0.41058   0.00000  Uiso   1.00
S2110  S     0.91058   0.81461   0.58942   0.00000  Uiso   1.00
S2111  S     0.91058   0.31461   0.08942   0.00000  Uiso   1.00
S2112  S     0.41058   0.81461   0.08942   0.00000  Uiso   1.00
S2113  S     0.08942   0.81461   0.41058   0.00000  Uiso   1.00
S2114  S     0.08942   0.31461   0.91058   0.00000  Uiso   1.00
S2115  S     0.18539   0.41058   0.91058   0.00000  Uiso   1.00
S2116  S     0.68539   0.41058   0.41058   0.00000  Uiso   1.00
S2117  S     0.18539   0.58942   0.08942   0.00000  Uiso   1.00
S2118  S     0.68539   0.58942   0.58942   0.00000  Uiso   1.00
S2119  S     0.68539   0.08942   0.08942   0.00000  Uiso   1.00
S2120  S     0.81461   0.41058   0.08942   0.00000  Uiso   1.00
S2121  S     0.31461   0.41058   0.58942   0.00000  Uiso   1.00
S2122  S     0.81461   0.58942   0.91058   0.00000  Uiso   1.00
S2123  S     0.81461   0.08942   0.41058   0.00000  Uiso   1.00
S2124  S     0.31461   0.58942   0.41058   0.00000  Uiso   1.00
S2125  S     0.91058   0.58942   0.81461   0.00000  Uiso   1.00
S2126  S     0.91058   0.08942   0.31461   0.00000  Uiso   1.00
S2127  S     0.08942   0.91058   0.31461   0.00000  Uiso   1.00
S2128  S     0.08942   0.58942   0.18539   0.00000  Uiso   1.00
S2129  S     0.91058   0.41058   0.18539   0.00000  Uiso   1.00
S2130  S     0.91058   0.91058   0.68539   0.00000  Uiso   1.00
S2131  S     0.81461   0.91058   0.58942   0.00000  Uiso   1.00
S2132  S     0.31461   0.91058   0.08942   0.00000  Uiso   1.00
S2133  S     0.31461   0.08942   0.91058   0.00000  Uiso   1.00
S2134  S     0.18539   0.08942   0.58942   0.00000  Uiso   1.00
S2135  S     0.18539   0.91058   0.41058   0.00000  Uiso   1.00
S2136  S     0.68539   0.91058   0.91058   0.00000  Uiso   1.00
S2137  S     0.58942   0.81461   0.91058   0.00000  Uiso   1.00
S2138  S     0.58942   0.31461   0.41058   0.00000  Uiso   1.00
S2139  S     0.41058   0.31461   0.58942   0.00000  Uiso   1.00
S2140  S     0.58942   0.18539   0.08942   0.00000  Uiso   1.00
S2141  S     0.58942   0.68539   0.58942   0.00000  Uiso   1.00
S2142  S     0.41058   0.18539   0.91058   0.00000  Uiso   1.00
S2143  S     0.58942   0.91058   0.18539   0.00000  Uiso   1.00
S2144  S     0.58942   0.41058   0.68539   0.00000  Uiso   1.00
S2145  S     0.41058   0.58942   0.68539   0.00000  Uiso   1.00
S2146  S     0.58942   0.08942   0.81461   0.00000  Uiso   1.00
S2147  S     0.58942   0.58942   0.31461   0.00000  Uiso   1.00
S2148  S     0.41058   0.91058   0.81461   0.00000  Uiso   1.00
S2149  S     0.91058   0.81461   0.41058   0.00000  Uiso   1.00
S2150  S     0.91058   0.31461   0.91058   0.00000  Uiso   1.00
S2151  S     0.08942   0.81461   0.58942   0.00000  Uiso   1.00
S2152  S     0.08942   0.68539   0.91058   0.00000  Uiso   1.00
S2153  S     0.91058   0.18539   0.58942   0.00000  Uiso   1.00
S2154  S     0.91058   0.68539   0.08942   0.00000  Uiso   1.00
S2155  S     0.81461   0.58942   0.08942   0.00000  Uiso   1.00
S2156  S     0.31461   0.58942   0.58942   0.00000  Uiso   1.00
S2157  S     0.81461   0.41058   0.91058   0.00000  Uiso   1.00
S2158  S     0.18539   0.58942   0.91058   0.00000  Uiso   1.00
S2159  S     0.68539   0.58942   0.41058   0.00000  Uiso   1.00
S2160  S     0.68539   0.41058   0.58942   0.00000  Uiso   1.00
O2161  O     0.23314   0.46509   0.23314   0.00000  Uiso   1.00
O2162  O     0.23314   0.96509   0.73314   0.00000  Uiso   1.00
O2163  O     0.73314   0.46509   0.73314   0.00000  Uiso   1.00
O2164  O     0.73314   0.96509   0.23314   0.00000  Uiso   1.00
O2165  O     0.76686   0.53491   0.23314   0.00000  Uiso   1.00
O2166  O     0.76686   0.03491   0.73314   0.00000  Uiso   1.00
O2167  O     0.26686   0.53491   0.73314   0.00000  Uiso   1.00
O2168  O     0.26686   0.03491   0.23314   0.00000  Uiso   1.00
O2169  O     0.76686   0.46509   0.76686   0.00000  Uiso   1.00
O2170  O     0.76686   0.96509   0.26686   0.00000  Uiso   1.00
O2171  O     0.26686   0.46509   0.26686   0.00000  Uiso   1.00
O2172  O     0.26686   0.96509   0.76686   0.00000  Uiso   1.00
O2173  O     0.23314   0.53491   0.76686   0.00000  Uiso   1.00
O2174  O     0.23314   0.03491   0.26686   0.00000  Uiso   1.00
O2175  O     0.73314   0.53491   0.26686   0.00000  Uiso   1.00
O2176  O     0.73314   0.03491   0.76686   0.00000  Uiso   1.00
O2177  O     0.23314   0.23314   0.46509   0.00000  Uiso   1.00
O2178  O     0.23314   0.73314   0.96509   0.00000  Uiso   1.00
O2179  O     0.73314   0.23314   0.96509   0.00000  Uiso   1.00
O2180  O     0.73314   0.73314   0.46509   0.00000  Uiso   1.00
O2181  O     0.23314   0.76686   0.53491   0.00000  Uiso   1.00
O2182  O     0.23314   0.26686   0.03491   0.00000  Uiso   1.00
O2183  O     0.73314   0.76686   0.03491   0.00000  Uiso   1.00
O2184  O     0.73314   0.26686   0.53491   0.00000  Uiso   1.00
O2185  O     0.76686   0.76686   0.46509   0.00000  Uiso   1.00
O2186  O     0.76686   0.26686   0.96509   0.00000  Uiso   1.00
O2187  O     0.26686   0.76686   0.96509   0.00000  Uiso   1.00
O2188  O     0.26686   0.26686   0.46509   0.00000  Uiso   1.00
O2189  O     0.76686   0.23314   0.53491   0.00000  Uiso   1.00
O2190  O     0.76686   0.73314   0.03491   0.00000  Uiso   1.00
O2191  O     0.26686   0.23314   0.03491   0.00000  Uiso   1.00
O2192  O     0.26686   0.73314   0.53491   0.00000  Uiso   1.00
O2193  O     0.46509   0.23314   0.23314   0.00000  Uiso   1.00
O2194  O     0.46509   0.73314   0.73314   0.00000  Uiso   1.00
O2195  O     0.96509   0.23314   0.73314   0.00000  Uiso   1.00
O2196  O     0.96509   0.73314   0.23314   0.00000  Uiso   1.00
O2197  O     0.53491   0.23314   0.76686   0.00000  Uiso   1.00
O2198  O     0.53491   0.73314   0.26686   0.00000  Uiso   1.00
O2199  O     0.03491   0.23314   0.26686   0.00000  Uiso   1.00
O2200  O     0.03491   0.73314   0.76686   0.00000  Uiso   1.00
O2201  O     0.46509   0.76686   0.76686   0.00000  Uiso   1.00
O2202  O     0.46509   0.26686   0.26686   0.00000  Uiso   1.00
O2203  O     0.96509   0.76686   0.26686   0.00000  Uiso   1.00
O2204  O     0.96509   0.26686   0.76686   0.00000  Uiso   1.00
O2205  O     0.53491   0.76686   0.23314   0.00000  Uiso   1.00
O2206  O     0.53491   0.26686   0.73314   0.00000  Uiso   1.00
O2207  O     0.03491   0.76686   0.73314   0.00000  Uiso   1.00
O2208  O     0.03491   0.26686   0.23314   0.00000  Uiso   1.00
O2209  O     0.46509   0.23314   0.76686   0.00000  Uiso   1.00
O2210  O     0.46509   0.73314   0.26686   0.00000  Uiso   1.00
O2211  O     0.96509   0.23314   0.26686   0.00000  Uiso   1.00
O2212  O     0.96509   0.73314   0.76686   0.00000  Uiso   1.00
O2213  O     0.53491   0.76686   0.76686   0.00000  Uiso   1.00
O2214  O     0.53491   0.26686   0.26686   0.00000  Uiso   1.00
O2215  O     0.03491   0.76686   0.26686   0.00000  Uiso   1.00
O2216  O     0.03491   0.26686   0.76686   0.00000  Uiso   1.00
O2217  O     0.46509   0.76686   0.23314   0.00000  Uiso   1.00
O2218  O     0.46509   0.26686   0.73314   0.00000  Uiso   1.00
O2219  O     0.96509   0.76686   0.73314   0.00000  Uiso   1.00
O2220  O     0.96509   0.26686   0.23314   0.00000  Uiso   1.00
O2221  O     0.53491   0.23314   0.23314   0.00000  Uiso   1.00
O2222  O     0.53491   0.73314   0.73314   0.00000  Uiso   1.00
O2223  O     0.03491   0.23314   0.73314   0.00000  Uiso   1.00
O2224  O     0.03491   0.73314   0.23314   0.00000  Uiso   1.00
O2225  O     0.23314   0.23314   0.53491   0.00000  Uiso   1.00
O2226  O     0.23314   0.73314   0.03491   0.00000  Uiso   1.00
O2227  O     0.73314   0.23314   0.03491   0.00000  Uiso   1.00
O2228  O     0.73314   0.73314   0.53491   0.00000  Uiso   1.00
O2229  O     0.76686   0.23314   0.46509   0.00000  Uiso   1.00
O2230  O     0.76686   0.73314   0.96509   0.00000  Uiso   1.00
O2231  O     0.26686   0.23314   0.96509   0.00000  Uiso   1.00
O2232  O     0.26686   0.73314   0.46509   0.00000  Uiso   1.00
O2233  O     0.76686   0.76686   0.53491   0.00000  Uiso   1.00
O2234  O     0.76686   0.26686   0.03491   0.00000  Uiso   1.00
O2235  O     0.26686   0.76686   0.03491   0.00000  Uiso   1.00
O2236  O     0.26686   0.26686   0.53491   0.00000  Uiso   1.00
O2237  O     0.23314   0.76686   0.46509   0.00000  Uiso   1.00
O2238  O     0.23314   0.26686   0.96509   0.00000  Uiso   1.00
O2239  O     0.73314   0.76686   0.96509   0.00000  Uiso   1.00
O2240  O     0.73314   0.26686   0.46509   0.00000  Uiso   1.00
O2241  O     0.23314   0.46509   0.76686   0.00000  Uiso   1.00
O2242  O     0.23314   0.96509   0.26686   0.00000  Uiso   1.00
O2243  O     0.73314   0.46509   0.26686   0.00000  Uiso   1.00
O2244  O     0.73314   0.96509   0.76686   0.00000  Uiso   1.00
O2245  O     0.23314   0.53491   0.23314   0.00000  Uiso   1.00
O2246  O     0.23314   0.03491   0.73314   0.00000  Uiso   1.00
O2247  O     0.73314   0.53491   0.73314   0.00000  Uiso   1.00
O2248  O     0.73314   0.03491   0.23314   0.00000  Uiso   1.00
O2249  O     0.76686   0.46509   0.23314   0.00000  Uiso   1.00
O2250  O     0.76686   0.96509   0.73314   0.00000  Uiso   1.00
O2251  O     0.26686   0.46509   0.73314   0.00000  Uiso   1.00
O2252  O     0.26686   0.96509   0.23314   0.00000  Uiso   1.00
O2253  O     0.76686   0.53491   0.76686   0.00000  Uiso   1.00
O2254  O     0.76686   0.03491   0.26686   0.00000  Uiso   1.00
O2255  O     0.26686   0.53491   0.26686   0.00000  Uiso   1.00
O2256  O     0.26686   0.03491   0.76686   0.00000  Uiso   1.00
O2257  O     0.25789   0.50000   0.20794   0.00000  Uiso   1.00
O2258  O     0.25789   0.00000   0.70794   0.00000  Uiso   1.00
O2259  O     0.75789   0.50000   0.70794   0.00000  Uiso   1.00
O2260  O     0.75789   0.00000   0.20794   0.00000  Uiso   1.00
O2261  O     0.74211   0.50000   0.20794   0.00000  Uiso   1.00
O2262  O     0.74211   0.00000   0.70794   0.00000  Uiso   1.00
O2263  O     0.24211   0.50000   0.70794   0.00000  Uiso   1.00
O2264  O     0.24211   0.00000   0.20794   0.00000  Uiso   1.00
O2265  O     0.74211   0.50000   0.79206   0.00000  Uiso   1.00
O2266  O     0.74211   0.00000   0.29206   0.00000  Uiso   1.00
O2267  O     0.24211   0.50000   0.29206   0.00000  Uiso   1.00
O2268  O     0.24211   0.00000   0.79206   0.00000  Uiso   1.00
O2269  O     0.25789   0.50000   0.79206   0.00000  Uiso   1.00
O2270  O     0.25789   0.00000   0.29206   0.00000  Uiso   1.00
O2271  O     0.75789   0.50000   0.29206   0.00000  Uiso   1.00
O2272  O     0.75789   0.00000   0.79206   0.00000  Uiso   1.00
O2273  O     0.20794   0.25789   0.50000   0.00000  Uiso   1.00
O2274  O     0.20794   0.75789   0.00000   0.00000  Uiso   1.00
O2275  O     0.70794   0.25789   0.00000   0.00000  Uiso   1.00
O2276  O     0.70794   0.75789   0.50000   0.00000  Uiso   1.00
O2277  O     0.20794   0.74211   0.50000   0.00000  Uiso   1.00
O2278  O     0.20794   0.24211   0.00000   0.00000  Uiso   1.00
O2279  O     0.70794   0.74211   0.00000   0.00000  Uiso   1.00
O2280  O     0.70794   0.24211   0.50000   0.00000  Uiso   1.00
O2281  O     0.79206   0.74211   0.50000   0.00000  Uiso   1.00
O2282  O     0.79206   0.24211   0.00000   0.00000  Uiso   1.00
O2283  O     0.29206   0.74211   0.00000   0.00000  Uiso   1.00
O2284  O     0.29206   0.24211   0.50000   0.00000  Uiso   1.00
O2285  O     0.79206   0.25789   0.50000   0.00000  Uiso   1.00
O2286  O     0.79206   0.75789   0.00000   0.00000  Uiso   1.00
O2287  O     0.29206   0.25789   0.00000   0.00000  Uiso   1.00
O2288  O     0.29206   0.75789   0.50000   0.00000  Uiso   1.00
O2289  O     0.50000   0.20794   0.25789   0.00000  Uiso   1.00
O2290  O     0.50000   0.70794   0.75789   0.00000  Uiso   1.00
O2291  O     0.00000   0.20794   0.75789   0.00000  Uiso   1.00
O2292  O     0.00000   0.70794   0.25789   0.00000  Uiso   1.00
O2293  O     0.50000   0.20794   0.74211   0.00000  Uiso   1.00
O2294  O     0.50000   0.70794   0.24211   0.00000  Uiso   1.00
O2295  O     0.00000   0.20794   0.24211   0.00000  Uiso   1.00
O2296  O     0.00000   0.70794   0.74211   0.00000  Uiso   1.00
O2297  O     0.50000   0.79206   0.74211   0.00000  Uiso   1.00
O2298  O     0.50000   0.29206   0.24211   0.00000  Uiso   1.00
O2299  O     0.00000   0.79206   0.24211   0.00000  Uiso   1.00
O2300  O     0.00000   0.29206   0.74211   0.00000  Uiso   1.00
O2301  O     0.50000   0.79206   0.25789   0.00000  Uiso   1.00
O2302  O     0.50000   0.29206   0.75789   0.00000  Uiso   1.00
O2303  O     0.00000   0.79206   0.75789   0.00000  Uiso   1.00
O2304  O     0.00000   0.29206   0.25789   0.00000  Uiso   1.00
O2305  O     0.50000   0.25789   0.79206   0.00000  Uiso   1.00
O2306  O     0.50000   0.75789   0.29206   0.00000  Uiso   1.00
O2307  O     0.00000   0.25789   0.29206   0.00000  Uiso   1.00
O2308  O     0.00000   0.75789   0.79206   0.00000  Uiso   1.00
O2309  O     0.50000   0.74211   0.79206   0.00000  Uiso   1.00
O2310  O     0.50000   0.24211   0.29206   0.00000  Uiso   1.00
O2311  O     0.00000   0.74211   0.29206   0.00000  Uiso   1.00
O2312  O     0.00000   0.24211   0.79206   0.00000  Uiso   1.00
O2313  O     0.50000   0.74211   0.20794   0.00000  Uiso   1.00
O2314  O     0.50000   0.24211   0.70794   0.00000  Uiso   1.00
O2315  O     0.00000   0.74211   0.70794   0.00000  Uiso   1.00
O2316  O     0.00000   0.24211   0.20794   0.00000  Uiso   1.00
O2317  O     0.50000   0.25789   0.20794   0.00000  Uiso   1.00
O2318  O     0.50000   0.75789   0.70794   0.00000  Uiso   1.00
O2319  O     0.00000   0.25789   0.70794   0.00000  Uiso   1.00
O2320  O     0.00000   0.75789   0.20794   0.00000  Uiso   1.00
O2321  O     0.25789   0.20794   0.50000   0.00000  Uiso   1.00
O2322  O     0.25789   0.70794   0.00000   0.00000  Uiso   1.00
O2323  O     0.75789   0.20794   0.00000   0.00000  Uiso   1.00
O2324  O     0.75789   0.70794   0.50000   0.00000  Uiso   1.00
O2325  O     0.74211   0.20794   0.50000   0.00000  Uiso   1.00
O2326  O     0.74211   0.70794   0.00000   0.00000  Uiso   1.00
O2327  O     0.24211   0.20794   0.00000   0.00000  Uiso   1.00
O2328  O     0.24211   0.70794   0.50000   0.00000  Uiso   1.00
O2329  O     0.74211   0.79206   0.50000   0.00000  Uiso   1.00
O2330  O     0.74211   0.29206   0.00000   0.00000  Uiso   1.00
O2331  O     0.24211   0.79206   0.00000   0.00000  Uiso   1.00
O2332  O     0.24211   0.29206   0.50000   0.00000  Uiso   1.00
O2333  O     0.25789   0.79206   0.50000   0.00000  Uiso   1.00
O2334  O     0.25789   0.29206   0.00000   0.00000  Uiso   1.00
O2335  O     0.75789   0.79206   0.00000   0.00000  Uiso   1.00
O2336  O     0.75789   0.29206   0.50000   0.00000  Uiso   1.00
O2337  O     0.20794   0.50000   0.74211   0.00000  Uiso   1.00
O2338  O     0.20794   0.00000   0.24211   0.00000  Uiso   1.00
O2339  O     0.70794   0.50000   0.24211   0.00000  Uiso   1.00
O2340  O     0.70794   0.00000   0.74211   0.00000  Uiso   1.00
O2341  O     0.20794   0.50000   0.25789   0.00000  Uiso   1.00
O2342  O     0.20794   0.00000   0.75789   0.00000  Uiso   1.00
O2343  O     0.70794   0.50000   0.75789   0.00000  Uiso   1.00
O2344  O     0.70794   0.00000   0.25789   0.00000  Uiso   1.00
O2345  O     0.79206   0.50000   0.25789   0.00000  Uiso   1.00
O2346  O     0.79206   0.00000   0.75789   0.00000  Uiso   1.00
O2347  O     0.29206   0.50000   0.75789   0.00000  Uiso   1.00
O2348  O     0.29206   0.00000   0.25789   0.00000  Uiso   1.00
O2349  O     0.79206   0.50000   0.74211   0.00000  Uiso   1.00
O2350  O     0.79206   0.00000   0.24211   0.00000  Uiso   1.00
O2351  O     0.29206   0.50000   0.24211   0.00000  Uiso   1.00
O2352  O     0.29206   0.00000   0.74211   0.00000  Uiso   1.00
H2353  H     0.24935   0.42122   0.27287   0.00000  Uiso   1.00
H2354  H     0.21649   0.46647   0.30573   0.00000  Uiso   1.00
H2355  H     0.24935   0.92122   0.77287   0.00000  Uiso   1.00
H2356  H     0.21649   0.96647   0.80573   0.00000  Uiso   1.00
H2357  H     0.79509   0.57878   0.27287   0.00000  Uiso   1.00
H2358  H     0.82795   0.53353   0.30573   0.00000  Uiso   1.00
H2359  H     0.79509   0.07878   0.77287   0.00000  Uiso   1.00
H2360  H     0.82795   0.03353   0.80573   0.00000  Uiso   1.00
H2361  H     0.29509   0.07878   0.27287   0.00000  Uiso   1.00
H2362  H     0.32795   0.03353   0.30573   0.00000  Uiso   1.00
H2363  H     0.79509   0.42122   0.72713   0.00000  Uiso   1.00
H2364  H     0.82795   0.46647   0.69427   0.00000  Uiso   1.00
H2365  H     0.79509   0.92122   0.22713   0.00000  Uiso   1.00
H2366  H     0.82795   0.96647   0.19427   0.00000  Uiso   1.00
H2367  H     0.29509   0.42122   0.22713   0.00000  Uiso   1.00
H2368  H     0.32795   0.46647   0.19427   0.00000  Uiso   1.00
H2369  H     0.24935   0.57878   0.72713   0.00000  Uiso   1.00
H2370  H     0.21649   0.53353   0.69427   0.00000  Uiso   1.00
H2371  H     0.24935   0.07878   0.22713   0.00000  Uiso   1.00
H2372  H     0.21649   0.03353   0.19427   0.00000  Uiso   1.00
H2373  H     0.29509   0.22713   0.42122   0.00000  Uiso   1.00
H2374  H     0.32795   0.19427   0.46647   0.00000  Uiso   1.00
H2375  H     0.29509   0.72713   0.92122   0.00000  Uiso   1.00
H2376  H     0.32795   0.69427   0.96647   0.00000  Uiso   1.00
H2377  H     0.29509   0.77287   0.57878   0.00000  Uiso   1.00
H2378  H     0.32795   0.80573   0.53353   0.00000  Uiso   1.00
H2379  H     0.29509   0.27287   0.07878   0.00000  Uiso   1.00
H2380  H     0.32795   0.30573   0.03353   0.00000  Uiso   1.00
H2381  H     0.74935   0.77287   0.42122   0.00000  Uiso   1.00
H2382  H     0.71649   0.80573   0.46647   0.00000  Uiso   1.00
H2383  H     0.74935   0.27287   0.92122   0.00000  Uiso   1.00
H2384  H     0.71649   0.30573   0.96647   0.00000  Uiso   1.00
H2385  H     0.24935   0.27287   0.42122   0.00000  Uiso   1.00
H2386  H     0.21649   0.30573   0.46647   0.00000  Uiso   1.00
H2387  H     0.74935   0.22713   0.57878   0.00000  Uiso   1.00
H2388  H     0.71649   0.19427   0.53353   0.00000  Uiso   1.00
H2389  H     0.74935   0.72713   0.07878   0.00000  Uiso   1.00
H2390  H     0.71649   0.69427   0.03353   0.00000  Uiso   1.00
H2391  H     0.24935   0.22713   0.07878   0.00000  Uiso   1.00
H2392  H     0.21649   0.19427   0.03353   0.00000  Uiso   1.00
H2393  H     0.44344   0.27287   0.22713   0.00000  Uiso   1.00
H2394  H     0.48869   0.30573   0.19427   0.00000  Uiso   1.00
H2395  H     0.94344   0.27287   0.72713   0.00000  Uiso   1.00
H2396  H     0.98869   0.30573   0.69427   0.00000  Uiso   1.00
H2397  H     0.60100   0.27287   0.77287   0.00000  Uiso   1.00
H2398  H     0.55575   0.30573   0.80573   0.00000  Uiso   1.00
H2399  H     0.10100   0.27287   0.27287   0.00000  Uiso   1.00
H2400  H     0.05575   0.30573   0.30573   0.00000  Uiso   1.00
H2401  H     0.44344   0.72713   0.77287   0.00000  Uiso   1.00
H2402  H     0.48869   0.69427   0.80573   0.00000  Uiso   1.00
H2403  H     0.44344   0.22713   0.27287   0.00000  Uiso   1.00
H2404  H     0.48869   0.19427   0.30573   0.00000  Uiso   1.00
H2405  H     0.94344   0.72713   0.27287   0.00000  Uiso   1.00
H2406  H     0.98869   0.69427   0.30573   0.00000  Uiso   1.00
H2407  H     0.60100   0.72713   0.22713   0.00000  Uiso   1.00
H2408  H     0.55575   0.69427   0.19427   0.00000  Uiso   1.00
H2409  H     0.10100   0.72713   0.72713   0.00000  Uiso   1.00
H2410  H     0.05575   0.69427   0.69427   0.00000  Uiso   1.00
H2411  H     0.10100   0.22713   0.22713   0.00000  Uiso   1.00
H2412  H     0.05575   0.19427   0.19427   0.00000  Uiso   1.00
H2413  H     0.44344   0.22713   0.72713   0.00000  Uiso   1.00
H2414  H     0.48869   0.19427   0.69427   0.00000  Uiso   1.00
H2415  H     0.94344   0.22713   0.22713   0.00000  Uiso   1.00
H2416  H     0.98869   0.19427   0.19427   0.00000  Uiso   1.00
H2417  H     0.60100   0.77287   0.72713   0.00000  Uiso   1.00
H2418  H     0.55575   0.80573   0.69427   0.00000  Uiso   1.00
H2419  H     0.60100   0.27287   0.22713   0.00000  Uiso   1.00
H2420  H     0.55575   0.30573   0.19427   0.00000  Uiso   1.00
H2421  H     0.10100   0.77287   0.22713   0.00000  Uiso   1.00
H2422  H     0.05575   0.80573   0.19427   0.00000  Uiso   1.00
H2423  H     0.44344   0.77287   0.27287   0.00000  Uiso   1.00
H2424  H     0.48869   0.80573   0.30573   0.00000  Uiso   1.00
H2425  H     0.94344   0.77287   0.77287   0.00000  Uiso   1.00
H2426  H     0.98869   0.80573   0.80573   0.00000  Uiso   1.00
H2427  H     0.94344   0.27287   0.27287   0.00000  Uiso   1.00
H2428  H     0.98869   0.30573   0.30573   0.00000  Uiso   1.00
H2429  H     0.60100   0.22713   0.27287   0.00000  Uiso   1.00
H2430  H     0.55575   0.19427   0.30573   0.00000  Uiso   1.00
H2431  H     0.10100   0.22713   0.77287   0.00000  Uiso   1.00
H2432  H     0.05575   0.19427   0.80573   0.00000  Uiso   1.00
H2433  H     0.24935   0.27287   0.57878   0.00000  Uiso   1.00
H2434  H     0.21649   0.30573   0.53353   0.00000  Uiso   1.00
H2435  H     0.24935   0.77287   0.07878   0.00000  Uiso   1.00
H2436  H     0.21649   0.80573   0.03353   0.00000  Uiso   1.00
H2437  H     0.79509   0.27287   0.42122   0.00000  Uiso   1.00
H2438  H     0.82795   0.30573   0.46647   0.00000  Uiso   1.00
H2439  H     0.79509   0.77287   0.92122   0.00000  Uiso   1.00
H2440  H     0.82795   0.80573   0.96647   0.00000  Uiso   1.00
H2441  H     0.29509   0.27287   0.92122   0.00000  Uiso   1.00
H2442  H     0.32795   0.30573   0.96647   0.00000  Uiso   1.00
H2443  H     0.79509   0.72713   0.57878   0.00000  Uiso   1.00
H2444  H     0.82795   0.69427   0.53353   0.00000  Uiso   1.00
H2445  H     0.79509   0.22713   0.07878   0.00000  Uiso   1.00
H2446  H     0.82795   0.19427   0.03353   0.00000  Uiso   1.00
H2447  H     0.29509   0.22713   0.57878   0.00000  Uiso   1.00
H2448  H     0.32795   0.19427   0.53353   0.00000  Uiso   1.00
H2449  H     0.24935   0.72713   0.42122   0.00000  Uiso   1.00
H2450  H     0.21649   0.69427   0.46647   0.00000  Uiso   1.00
H2451  H     0.24935   0.22713   0.92122   0.00000  Uiso   1.00
H2452  H     0.21649   0.19427   0.96647   0.00000  Uiso   1.00
H2453  H     0.29509   0.42122   0.77287   0.00000  Uiso   1.00
H2454  H     0.32795   0.46647   0.80573   0.00000  Uiso   1.00
H2455  H     0.29509   0.92122   0.27287   0.00000  Uiso   1.00
H2456  H     0.32795   0.96647   0.30573   0.00000  Uiso   1.00
H2457  H     0.29509   0.57878   0.22713   0.00000  Uiso   1.00
H2458  H     0.32795   0.53353   0.19427   0.00000  Uiso   1.00
H2459  H     0.29509   0.07878   0.72713   0.00000  Uiso   1.00
H2460  H     0.32795   0.03353   0.69427   0.00000  Uiso   1.00
H2461  H     0.74935   0.42122   0.22713   0.00000  Uiso   1.00
H2462  H     0.71649   0.46647   0.19427   0.00000  Uiso   1.00
H2463  H     0.74935   0.92122   0.72713   0.00000  Uiso   1.00
H2464  H     0.71649   0.96647   0.69427   0.00000  Uiso   1.00
H2465  H     0.24935   0.92122   0.22713   0.00000  Uiso   1.00
H2466  H     0.21649   0.96647   0.19427   0.00000  Uiso   1.00
H2467  H     0.74935   0.57878   0.77287   0.00000  Uiso   1.00
H2468  H     0.71649   0.53353   0.80573   0.00000  Uiso   1.00
H2469  H     0.74935   0.07878   0.27287   0.00000  Uiso   1.00
H2470  H     0.71649   0.03353   0.30573   0.00000  Uiso   1.00
H2471  H     0.24935   0.57878   0.27287   0.00000  Uiso   1.00
H2472  H     0.21649   0.53353   0.30573   0.00000  Uiso   1.00
H2473  H     0.79509   0.57878   0.72713   0.00000  Uiso   1.00
H2474  H     0.82795   0.53353   0.69427   0.00000  Uiso   1.00
H2475  H     0.79509   0.07878   0.22713   0.00000  Uiso   1.00
H2476  H     0.82795   0.03353   0.19427   0.00000  Uiso   1.00
H2477  H     0.24935   0.42122   0.72713   0.00000  Uiso   1.00
H2478  H     0.21649   0.46647   0.69427   0.00000  Uiso   1.00
H2479  H     0.24935   0.07878   0.77287   0.00000  Uiso   1.00
H2480  H     0.21649   0.03353   0.80573   0.00000  Uiso   1.00
H2481  H     0.79509   0.42122   0.27287   0.00000  Uiso   1.00
H2482  H     0.82795   0.46647   0.30573   0.00000  Uiso   1.00
H2483  H     0.79509   0.92122   0.77287   0.00000  Uiso   1.00
H2484  H     0.82795   0.96647   0.80573   0.00000  Uiso   1.00
H2485  H     0.74935   0.77287   0.57878   0.00000  Uiso   1.00
H2486  H     0.71649   0.80573   0.53353   0.00000  Uiso   1.00
H2487  H     0.74935   0.27287   0.07878   0.00000  Uiso   1.00
H2488  H     0.71649   0.30573   0.03353   0.00000  Uiso   1.00
H2489  H     0.74935   0.22713   0.42122   0.00000  Uiso   1.00
H2490  H     0.71649   0.19427   0.46647   0.00000  Uiso   1.00
H2491  H     0.74935   0.72713   0.92122   0.00000  Uiso   1.00
H2492  H     0.71649   0.69427   0.96647   0.00000  Uiso   1.00
H2493  H     0.29509   0.72713   0.07878   0.00000  Uiso   1.00
H2494  H     0.32795   0.69427   0.03353   0.00000  Uiso   1.00
H2495  H     0.29509   0.77287   0.42122   0.00000  Uiso   1.00
H2496  H     0.32795   0.80573   0.46647   0.00000  Uiso   1.00
H2497  H     0.60100   0.72713   0.77287   0.00000  Uiso   1.00
H2498  H     0.55575   0.69427   0.80573   0.00000  Uiso   1.00
H2499  H     0.10100   0.72713   0.27287   0.00000  Uiso   1.00
H2500  H     0.05575   0.69427   0.30573   0.00000  Uiso   1.00
H2501  H     0.44344   0.72713   0.22713   0.00000  Uiso   1.00
H2502  H     0.48869   0.69427   0.19427   0.00000  Uiso   1.00
H2503  H     0.94344   0.72713   0.72713   0.00000  Uiso   1.00
H2504  H     0.98869   0.69427   0.69427   0.00000  Uiso   1.00
H2505  H     0.10100   0.27287   0.72713   0.00000  Uiso   1.00
H2506  H     0.05575   0.30573   0.69427   0.00000  Uiso   1.00
H2507  H     0.44344   0.27287   0.77287   0.00000  Uiso   1.00
H2508  H     0.48869   0.30573   0.80573   0.00000  Uiso   1.00
H2509  H     0.60100   0.77287   0.27287   0.00000  Uiso   1.00
H2510  H     0.55575   0.80573   0.30573   0.00000  Uiso   1.00
H2511  H     0.10100   0.77287   0.77287   0.00000  Uiso   1.00
H2512  H     0.05575   0.80573   0.80573   0.00000  Uiso   1.00
H2513  H     0.94344   0.22713   0.77287   0.00000  Uiso   1.00
H2514  H     0.98869   0.19427   0.80573   0.00000  Uiso   1.00
H2515  H     0.60100   0.22713   0.72713   0.00000  Uiso   1.00
H2516  H     0.55575   0.19427   0.69427   0.00000  Uiso   1.00
H2517  H     0.44344   0.77287   0.72713   0.00000  Uiso   1.00
H2518  H     0.48869   0.80573   0.69427   0.00000  Uiso   1.00
H2519  H     0.94344   0.77287   0.22713   0.00000  Uiso   1.00
H2520  H     0.98869   0.80573   0.19427   0.00000  Uiso   1.00
H2521  H     0.79509   0.72713   0.42122   0.00000  Uiso   1.00
H2522  H     0.82795   0.69427   0.46647   0.00000  Uiso   1.00
H2523  H     0.79509   0.22713   0.92122   0.00000  Uiso   1.00
H2524  H     0.82795   0.19427   0.96647   0.00000  Uiso   1.00
H2525  H     0.24935   0.72713   0.57878   0.00000  Uiso   1.00
H2526  H     0.21649   0.69427   0.53353   0.00000  Uiso   1.00
H2527  H     0.24935   0.77287   0.92122   0.00000  Uiso   1.00
H2528  H     0.21649   0.80573   0.96647   0.00000  Uiso   1.00
H2529  H     0.79509   0.27287   0.57878   0.00000  Uiso   1.00
H2530  H     0.82795   0.30573   0.53353   0.00000  Uiso   1.00
H2531  H     0.79509   0.77287   0.07878   0.00000  Uiso   1.00
H2532  H     0.82795   0.80573   0.03353   0.00000  Uiso   1.00
H2533  H     0.74935   0.57878   0.22713   0.00000  Uiso   1.00
H2534  H     0.71649   0.53353   0.19427   0.00000  Uiso   1.00
H2535  H     0.74935   0.07878   0.72713   0.00000  Uiso   1.00
H2536  H     0.71649   0.03353   0.69427   0.00000  Uiso   1.00
H2537  H     0.74935   0.42122   0.77287   0.00000  Uiso   1.00
H2538  H     0.71649   0.46647   0.80573   0.00000  Uiso   1.00
H2539  H     0.74935   0.92122   0.27287   0.00000  Uiso   1.00
H2540  H     0.71649   0.96647   0.30573   0.00000  Uiso   1.00
H2541  H     0.29509   0.57878   0.77287   0.00000  Uiso   1.00
H2542  H     0.32795   0.53353   0.80573   0.00000  Uiso   1.00
H2543  H     0.29509   0.92122   0.72713   0.00000  Uiso   1.00
H2544  H     0.32795   0.96647   0.69427   0.00000  Uiso   1.00
loop_
_geom_bond_atom_site_label_1
_geom_bond_atom_site_label_2
_geom_bond_distance
_geom_bond_site_symmetry_2
_ccdc_geom_bond_type
S1     C4      1.736   .     S
S1     C9      1.709   .     S
O2     C8      1.254   .     D
O2     Zr1729  2.210   .     S
O3     C8      1.260   .     S
O3     Zr1777  2.270   .     S
C4     C5      1.346   .     D
C4     C8      1.479   .     S
C5     H6      1.140   .     S
C5     C7      1.411   .     S
C7     C9      1.376   .     D
C7     S2065   1.737   .     S
C9     C1332   1.422   .     S
S10    C13     1.736   .     S
S10    C18     1.709   .     S
O11    C17     1.254   .     D
O11    Zr1730  2.210   1_565 S
O12    C17     1.260   .     S
O12    Zr1780  2.270   .     S
C13    C14     1.346   .     D
C13    C17     1.479   .     S
C14    H15     1.140   .     S
C14    C16     1.411   .     S
C16    C18     1.376   .     D
C16    S2066   1.737   .     S
C18    C1323   1.422   .     S
S19    C22     1.736   .     S
S19    C27     1.709   .     S
O20    C26     1.254   .     D
O20    Zr1731  2.210   .     S
O21    C26     1.260   .     S
O21    Zr2053  2.270   .     S
C22    C23     1.346   .     D
C22    C26     1.479   .     S
C23    H24     1.140   .     S
C23    C25     1.411   .     S
C25    C27     1.376   .     D
C25    S2144   1.737   .     S
C27    C1314   1.422   .     S
S28    C31     1.736   .     S
S28    C36     1.709   .     S
O29    C35     1.254   .     D
O29    Zr1732  2.210   1_565 S
O30    C35     1.260   .     S
O30    Zr2056  2.270   .     S
C31    C32     1.346   .     D
C31    C35     1.479   .     S
C32    H33     1.140   .     S
C32    C34     1.411   .     S
C34    C36     1.376   .     D
C34    S2143   1.737   .     S
C36    C1305   1.422   .     S
S37    C40     1.736   .     S
S37    C45     1.709   .     S
O38    C44     1.254   .     D
O38    Zr1733  2.210   .     S
O39    C44     1.260   .     S
O39    Zr1783  2.270   .     S
C40    C41     1.346   .     D
C40    C44     1.479   .     S
C41    H42     1.140   .     S
C41    C43     1.411   .     S
C43    C45     1.376   .     D
C43    S2067   1.737   .     S
C45    C1368   1.422   .     S
S46    C49     1.736   .     S
S46    C54     1.709   .     S
O47    C53     1.254   .     D
O47    Zr1734  2.210   .     S
O48    C53     1.260   .     S
O48    Zr1786  2.270   .     S
C49    C50     1.346   .     D
C49    C53     1.479   .     S
C50    H51     1.140   .     S
C50    C52     1.411   .     S
C52    C54     1.376   .     D
C52    S2068   1.737   .     S
C54    C1359   1.422   .     S
S55    C58     1.736   .     S
S55    C63     1.709   .     S
O56    C62     1.254   .     D
O56    Zr1735  2.210   .     S
O57    C62     1.260   .     S
O57    Zr2059  2.270   .     S
C58    C59     1.346   .     D
C58    C62     1.479   .     S
C59    H60     1.140   .     S
C59    C61     1.411   .     S
C61    C63     1.376   .     D
C61    S2145   1.737   .     S
C63    C1350   1.422   .     S
S64    C67     1.736   .     S
S64    C72     1.709   .     S
O65    C71     1.254   .     D
O65    Zr1736  2.210   .     S
O66    C71     1.260   .     S
O66    Zr1789  2.270   .     S
C67    C68     1.346   .     D
C67    C71     1.479   .     S
C68    H69     1.140   .     S
C68    C70     1.411   .     S
C70    C72     1.376   .     D
C70    S2069   1.737   .     S
C72    C1341   1.422   .     S
S73    C76     1.736   .     S
S73    C81     1.709   .     S
O74    C80     1.254   .     D
O74    Zr1737  2.210   .     S
O75    C80     1.260   .     S
O75    Zr1792  2.270   .     S
C76    C77     1.346   .     D
C76    C80     1.479   .     S
C77    H78     1.140   .     S
C77    C79     1.411   .     S
C79    C81     1.376   .     D
C79    S2070   1.737   .     S
C81    C1440   1.422   .     S
S82    C85     1.736   .     S
S82    C90     1.709   .     S
O83    C89     1.254   .     D
O83    Zr1738  2.210   1_565 D
O84    C89     1.260   .     S
O84    Zr1795  2.270   .     S
C85    C86     1.346   .     D
C85    C89     1.479   .     S
C86    H87     1.140   .     S
C86    C88     1.411   .     S
C88    C90     1.376   .     D
C88    S2071   1.737   .     S
C90    C1431   1.422   .     S
S91    C94     1.736   .     S
S91    C99     1.709   .     S
O92    C98     1.254   .     D
O92    Zr1739  2.210   .     S
O93    C98     1.260   .     S
O93    Zr1798  2.270   .     S
C94    C95     1.346   .     D
C94    C98     1.479   .     S
C95    H96     1.140   .     S
C95    C97     1.411   .     S
C97    C99     1.376   .     D
C97    S2072   1.737   .     S
C99    C1422   1.422   .     S
S100   C103    1.736   .     S
S100   C108    1.709   .     S
O101   C107    1.254   .     D
O101   Zr1740  2.210   1_565 S
O102   C107    1.260   .     S
O102   Zr2062  2.270   .     S
C103   C104    1.346   .     D
C103   C107    1.479   .     S
C104   H105    1.140   .     S
C104   C106    1.411   .     S
C106   C108    1.376   .     D
C106   S2148   1.737   .     S
C108   C1413   1.422   .     S
S109   C112    1.736   .     S
S109   C117    1.709   .     S
O110   C116    1.254   .     D
O110   Zr1741  2.210   .     S
O111   C116    1.260   .     S
O111   Zr1801  2.270   .     S
C112   C113    1.346   .     D
C112   C116    1.479   .     S
C113   H114    1.140   .     S
C113   C115    1.411   .     S
C115   C117    1.376   .     D
C115   S2073   1.737   .     S
C117   C1404   1.422   .     S
S118   C121    1.736   .     S
S118   C126    1.709   .     S
O119   C125    1.254   .     D
O119   Zr1742  2.210   .     S
O120   C125    1.260   .     S
O120   Zr1804  2.270   .     S
C121   C122    1.346   .     D
C121   C125    1.479   .     S
C122   H123    1.140   .     S
C122   C124    1.411   .     S
C124   C126    1.376   .     D
C124   S2074   1.737   .     S
C126   C1395   1.422   .     S
S127   C130    1.736   .     S
S127   C135    1.709   .     S
O128   C134    1.254   .     D
O128   Zr1743  2.210   .     S
O129   C134    1.260   .     S
O129   Zr2047  2.270   .     S
C130   C131    1.346   .     D
C130   C134    1.479   .     S
C131   H132    1.140   .     S
C131   C133    1.411   .     S
C133   C135    1.376   .     D
C133   S2147   1.737   .     S
C135   C1386   1.422   .     S
S136   C139    1.736   .     S
S136   C144    1.709   .     S
O137   C143    1.254   .     D
O137   Zr1744  2.210   .     S
O138   C143    1.260   .     S
O138   Zr2050  2.270   .     S
C139   C140    1.346   .     D
C139   C143    1.479   .     S
C140   H141    1.140   .     S
C140   C142    1.411   .     S
C142   C144    1.376   .     D
C142   S2146   1.737   .     S
C144   C1377   1.422   .     S
S145   C148    1.736   .     S
S145   C153    1.709   .     S
O146   C152    1.254   .     D
O146   Zr1745  2.210   .     S
O147   C152    1.260   .     S
O147   Zr1807  2.270   .     S
C148   C149    1.346   .     D
C148   C152    1.479   .     S
C149   H150    1.140   .     S
C149   C151    1.411   .     S
C151   C153    1.376   .     D
C151   S2075   1.737   .     S
C153   C1674   1.422   .     S
S154   C157    1.736   .     S
S154   C162    1.709   .     S
O155   C161    1.254   .     D
O155   Zr1746  2.210   1_556 S
O156   C161    1.260   .     S
O156   Zr1810  2.270   .     S
C157   C158    1.346   .     D
C157   C161    1.479   .     S
C158   H159    1.140   .     S
C158   C160    1.411   .     S
C160   C162    1.376   .     D
C160   S2158   1.737   .     S
C162   C1665   1.422   .     S
S163   C166    1.736   .     S
S163   C171    1.709   .     S
O164   C170    1.254   .     D
O164   Zr1747  2.210   1_556 S
O165   C170    1.260   .     S
O165   Zr2032  2.270   .     S
C166   C167    1.346   .     D
C166   C170    1.479   .     S
C167   H168    1.140   .     S
C167   C169    1.411   .     S
C169   C171    1.376   .     D
C169   S2076   1.737   .     S
C171   C1692   1.422   .     S
S172   C175    1.736   .     S
S172   C180    1.709   .     S
O173   C179    1.254   .     D
O173   Zr1748  2.210   .     S
O174   C179    1.260   .     S
O174   Zr2029  2.270   .     S
C175   C176    1.346   .     D
C175   C179    1.479   .     S
C176   H177    1.140   .     S
C176   C178    1.411   .     S
C178   C180    1.376   .     D
C178   S2159   1.737   .     S
C180   C1683   1.422   .     S
S181   C184    1.736   .     S
S181   C189    1.709   .     S
O182   C188    1.254   .     D
O182   Zr1749  2.210   .     S
O183   C188    1.260   .     S
O183   Zr1813  2.270   .     S
C184   C185    1.346   .     D
C184   C188    1.479   .     S
C185   H186    1.140   .     S
C185   C187    1.411   .     S
C187   C189    1.376   .     D
C187   S2077   1.737   .     S
C189   C1710   1.422   .     S
S190   C193    1.736   .     S
S190   C198    1.709   .     S
O191   C197    1.254   .     D
O191   Zr1750  2.210   .     S
O192   C197    1.260   .     S
O192   Zr1816  2.270   .     S
C193   C194    1.346   .     D
C193   C197    1.479   .     S
C194   H195    1.140   .     S
C194   C196    1.411   .     S
C196   C198    1.376   .     D
C196   S2078   1.737   .     S
C198   C1701   1.422   .     S
S199   C202    1.736   .     S
S199   C207    1.709   .     S
O200   C206    1.254   .     D
O200   Zr1751  2.210   .     S
O201   C206    1.260   .     S
O201   Zr2044  2.270   .     S
C202   C203    1.346   .     D
C202   C206    1.479   .     S
C203   H204    1.140   .     S
C203   C205    1.411   .     S
C205   C207    1.376   .     D
C205   S2079   1.737   .     S
C207   C1728   1.422   .     S
S208   C211    1.736   .     S
S208   C216    1.709   .     S
O209   C215    1.254   .     D
O209   Zr1752  2.210   .     S
O210   C215    1.260   .     S
O210   Zr2041  2.270   .     S
C211   C212    1.346   .     D
C211   C215    1.479   .     S
C212   H213    1.140   .     S
C212   C214    1.411   .     S
C214   C216    1.376   .     D
C214   S2160   1.737   .     S
C216   C1719   1.422   .     S
S217   C220    1.736   .     S
S217   C225    1.709   .     S
O218   C224    1.254   .     D
O218   Zr1753  2.210   .     S
O219   C224    1.260   .     S
O219   Zr1819  2.270   .     S
C220   C221    1.346   .     D
C220   C224    1.479   .     S
C221   H222    1.140   .     S
C221   C223    1.411   .     S
C223   C225    1.376   .     D
C223   S2080   1.737   .     S
C225   C1638   1.422   .     S
S226   C229    1.736   .     S
S226   C234    1.709   .     S
O227   C233    1.254   .     D
O227   Zr1754  2.210   1_556 D
O228   C233    1.260   .     S
O228   Zr1822  2.270   .     S
C229   C230    1.346   .     D
C229   C233    1.479   .     S
C230   H231    1.140   .     S
C230   C232    1.411   .     S
C232   C234    1.376   .     D
C232   S2157   1.737   .     S
C234   C1629   1.422   .     S
S235   C238    1.736   .     S
S235   C243    1.709   .     S
O236   C242    1.254   .     D
O236   Zr1755  2.210   1_556 S
O237   C242    1.260   .     S
O237   Zr2038  2.270   .     S
C238   C239    1.346   .     D
C238   C242    1.479   .     S
C239   H240    1.140   .     S
C239   C241    1.411   .     S
C241   C243    1.376   .     D
C241   S2081   1.737   .     S
C243   C1656   1.422   .     S
S244   C247    1.736   .     S
S244   C252    1.709   .     S
O245   C251    1.254   .     D
O245   Zr1756  2.210   .     S
O246   C251    1.260   .     S
O246   Zr1825  2.270   .     S
C247   C248    1.346   .     D
C247   C251    1.479   .     S
C248   H249    1.140   .     S
C248   C250    1.411   .     S
C250   C252    1.376   .     D
C250   S2082   1.737   .     S
C252   C1647   1.422   .     S
S253   C256    1.736   .     S
S253   C261    1.709   .     S
O254   C260    1.254   .     D
O254   Zr1757  2.210   .     S
O255   C260    1.260   .     S
O255   Zr1828  2.270   .     S
C256   C257    1.346   .     D
C256   C260    1.479   .     S
C257   H258    1.140   .     S
C257   C259    1.411   .     S
C259   C261    1.376   .     D
C259   S2083   1.737   .     S
C261   C1602   1.422   .     S
S262   C265    1.736   .     S
S262   C270    1.709   .     S
O263   C269    1.254   .     D
O263   Zr1758  2.210   .     S
O264   C269    1.260   .     S
O264   Zr1831  2.270   .     S
C265   C266    1.346   .     D
C265   C269    1.479   .     S
C266   H267    1.140   .     S
C266   C268    1.411   .     S
C268   C270    1.376   .     D
C268   S2155   1.737   .     S
C270   C1593   1.422   .     S
S271   C274    1.736   .     S
S271   C279    1.709   .     S
O272   C278    1.254   .     D
O272   Zr1759  2.210   .     S
O273   C278    1.260   .     S
O273   Zr1834  2.270   .     S
C274   C275    1.346   .     D
C274   C278    1.479   .     S
C275   H276    1.140   .     S
C275   C277    1.411   .     S
C277   C279    1.376   .     D
C277   S2084   1.737   .     S
C279   C1620   1.422   .     S
S280   C283    1.736   .     S
S280   C288    1.709   .     S
O281   C287    1.254   .     D
O281   Zr1760  2.210   .     S
O282   C287    1.260   .     S
O282   Zr2035  2.270   .     S
C283   C284    1.346   .     D
C283   C287    1.479   .     S
C284   H285    1.140   .     S
C284   C286    1.411   .     S
C286   C288    1.376   .     D
C286   S2156   1.737   .     S
C288   C1611   1.422   .     S
S289   C292    1.736   .     S
S289   C297    1.709   .     S
O290   C296    1.254   .     D
O290   Zr1761  2.210   .     S
O291   C296    1.260   .     S
O291   Zr1837  2.270   .     S
C292   C293    1.346   .     D
C292   C296    1.479   .     S
C293   H294    1.140   .     S
C293   C295    1.411   .     S
C295   C297    1.376   .     D
C295   S2085   1.737   .     S
C297   C1575   1.422   .     S
S298   C301    1.736   .     S
S298   C306    1.709   .     S
O299   C305    1.254   .     D
O299   Zr1762  2.210   .     S
O300   C305    1.260   .     S
O300   Zr2023  2.270   .     S
C301   C302    1.346   .     D
C301   C305    1.479   .     S
C302   H303    1.140   .     S
C302   C304    1.411   .     S
C304   C306    1.376   .     D
C304   S2086   1.737   .     S
C306   C1584   1.422   .     S
S307   C310    1.736   .     S
S307   C315    1.709   .     S
O308   C314    1.254   .     D
O308   Zr1763  2.210   1_655 S
O309   C314    1.260   .     S
O309   Zr1840  2.270   .     S
C310   C311    1.346   .     D
C310   C314    1.479   .     S
C311   H312    1.140   .     S
C311   C313    1.411   .     S
C313   C315    1.376   .     D
C313   S2153   1.737   .     S
C315   C1557   1.422   .     S
S316   C319    1.736   .     S
S316   C324    1.709   .     S
O317   C323    1.254   .     D
O317   Zr1764  2.210   1_655 S
O318   C323    1.260   .     S
O318   Zr2026  2.270   .     S
C319   C320    1.346   .     D
C319   C323    1.479   .     S
C320   H321    1.140   .     S
C320   C322    1.411   .     S
C322   C324    1.376   .     D
C322   S2154   1.737   .     S
C324   C1566   1.422   .     S
S325   C328    1.736   .     S
S325   C333    1.709   .     S
O326   C332    1.254   .     D
O326   Zr1765  2.210   .     S
O327   C332    1.260   .     S
O327   Zr1843  2.270   .     S
C328   C329    1.346   .     D
C328   C332    1.479   .     S
C329   H330    1.140   .     S
C329   C331    1.411   .     S
C331   C333    1.376   .     D
C331   S2087   1.737   .     S
C333   C1539   1.422   .     S
S334   C337    1.736   .     S
S334   C342    1.709   .     S
O335   C341    1.254   .     D
O335   Zr1766  2.210   .     S
O336   C341    1.260   .     S
O336   Zr2011  2.270   .     S
C337   C338    1.346   .     D
C337   C341    1.479   .     S
C338   H339    1.140   .     S
C338   C340    1.411   .     S
C340   C342    1.376   .     D
C340   S2088   1.737   .     S
C342   C1548   1.422   .     S
S343   C346    1.736   .     S
S343   C351    1.709   .     S
O344   C350    1.254   .     D
O344   Zr1767  2.210   .     S
O345   C350    1.260   .     S
O345   Zr1846  2.270   .     S
C346   C347    1.346   .     D
C346   C350    1.479   .     S
C347   H348    1.140   .     S
C347   C349    1.411   .     S
C349   C351    1.376   .     D
C349   S2089   1.737   .     S
C351   C1521   1.422   .     S
S352   C355    1.736   .     S
S352   C360    1.709   .     S
O353   C359    1.254   .     D
O353   Zr1768  2.210   .     S
O354   C359    1.260   .     S
O354   Zr2014  2.270   .     S
C355   C356    1.346   .     D
C355   C359    1.479   .     S
C356   H357    1.140   .     S
C356   C358    1.411   .     S
C358   C360    1.376   .     D
C358   S2152   1.737   .     S
C360   C1530   1.422   .     S
S361   C364    1.736   .     S
S361   C369    1.709   .     S
O362   C368    1.254   .     D
O362   Zr1769  2.210   .     S
O363   C368    1.260   .     S
O363   Zr1849  2.270   .     S
C364   C365    1.346   .     D
C364   C368    1.479   .     S
C365   H366    1.140   .     S
C365   C367    1.411   .     S
C367   C369    1.376   .     D
C367   S2090   1.737   .     S
C369   C1467   1.422   .     S
S370   C373    1.736   .     S
S370   C378    1.709   .     S
O371   C377    1.254   .     D
O371   Zr1770  2.210   .     S
O372   C377    1.260   .     S
O372   Zr1852  2.270   .     S
C373   C374    1.346   .     D
C373   C377    1.479   .     S
C374   H375    1.140   .     S
C374   C376    1.411   .     S
C376   C378    1.376   .     D
C376   S2091   1.737   .     S
C378   C1476   1.422   .     S
S379   C382    1.736   .     S
S379   C387    1.709   .     S
O380   C386    1.254   .     D
O380   Zr1771  2.210   1_655 D
O381   C386    1.260   .     S
O381   Zr1855  2.270   .     S
C382   C383    1.346   .     D
C382   C386    1.479   .     S
C383   H384    1.140   .     S
C383   C385    1.411   .     S
C385   C387    1.376   .     D
C385   S2149   1.737   .     S
C387   C1449   1.422   .     S
S388   C391    1.736   .     S
S388   C396    1.709   .     S
O389   C395    1.254   .     D
O389   Zr1772  2.210   1_655 S
O390   C395    1.260   .     S
O390   Zr2017  2.270   .     S
C391   C392    1.346   .     D
C391   C395    1.479   .     S
C392   H393    1.140   .     S
C392   C394    1.411   .     S
C394   C396    1.376   .     D
C394   S2150   1.737   .     S
C396   C1458   1.422   .     S
S397   C400    1.736   .     S
S397   C405    1.709   .     S
O398   C404    1.254   .     D
O398   Zr1773  2.210   .     S
O399   C404    1.260   .     S
O399   Zr1858  2.270   .     S
C400   C401    1.346   .     D
C400   C404    1.479   .     S
C401   H402    1.140   .     S
C401   C403    1.411   .     S
C403   C405    1.376   .     D
C403   S2092   1.737   .     S
C405   C1503   1.422   .     S
S406   C409    1.736   .     S
S406   C414    1.709   .     S
O407   C413    1.254   .     D
O407   Zr1774  2.210   .     S
O408   C413    1.260   .     S
O408   Zr2020  2.270   .     S
C409   C410    1.346   .     D
C409   C413    1.479   .     S
C410   H411    1.140   .     S
C410   C412    1.411   .     S
C412   C414    1.376   .     D
C412   S2093   1.737   .     S
C414   C1512   1.422   .     S
S415   C418    1.736   .     S
S415   C423    1.709   .     S
O416   C422    1.254   .     D
O416   Zr1775  2.210   .     S
O417   C422    1.260   .     S
O417   Zr1861  2.270   .     S
C418   C419    1.346   .     D
C418   C422    1.479   .     S
C419   H420    1.140   .     S
C419   C421    1.411   .     S
C421   C423    1.376   .     D
C421   S2151   1.737   .     S
C423   C1485   1.422   .     S
S424   C427    1.736   .     S
S424   C432    1.709   .     S
O425   C431    1.254   .     D
O425   Zr1776  2.210   .     S
O426   C431    1.260   .     S
O426   Zr1864  2.270   .     S
C427   C428    1.346   .     D
C427   C431    1.479   .     S
C428   H429    1.140   .     S
C428   C430    1.411   .     S
C430   C432    1.376   .     D
C430   S2094   1.737   .     S
C432   C1494   1.422   .     S
S433   C436    1.736   .     S
S433   C441    1.709   .     S
O434   C440    1.254   .     D
O434   Zr1765  2.210   .     S
O435   C440    1.260   .     S
O435   Zr1867  2.270   .     S
C436   C437    1.346   .     D
C436   C440    1.479   .     S
C437   H438    1.140   .     S
C437   C439    1.411   .     S
C439   C441    1.376   .     D
C439   S2095   1.737   .     S
C441   C900    1.422   .     S
S442   C445    1.736   .     S
S442   C450    1.709   .     S
O443   C449    1.254   .     D
O443   Zr1766  2.210   .     S
O444   C449    1.260   .     S
O444   Zr1999  2.270   .     S
C445   C446    1.346   .     D
C445   C449    1.479   .     S
C446   H447    1.140   .     S
C446   C448    1.411   .     S
C448   C450    1.376   .     D
C448   S2096   1.737   .     S
C450   C891    1.422   .     S
S451   C454    1.736   .     S
S451   C459    1.709   .     S
O452   C458    1.254   .     D
O452   Zr1767  2.210   1_655 S
O453   C458    1.260   .     S
O453   Zr1870  2.270   .     S
C454   C455    1.346   .     D
C454   C458    1.479   .     S
C455   H456    1.140   .     S
C455   C457    1.411   .     S
C457   C459    1.376   .     D
C457   S2126   1.737   .     S
C459   C882    1.422   .     S
S460   C463    1.736   .     S
S460   C468    1.709   .     S
O461   C467    1.254   .     D
O461   Zr1768  2.210   1_655 S
O462   C467    1.260   .     S
O462   Zr2002  2.270   .     S
C463   C464    1.346   .     D
C463   C467    1.479   .     S
C464   H465    1.140   .     S
C464   C466    1.411   .     S
C466   C468    1.376   .     D
C466   S2125   1.737   .     S
C468   C873    1.422   .     S
S469   C472    1.736   .     S
S469   C477    1.709   .     S
O470   C476    1.254   .     D
O470   Zr1769  2.210   .     S
O471   C476    1.260   .     S
O471   Zr1873  2.270   .     S
C472   C473    1.346   .     D
C472   C476    1.479   .     S
C473   H474    1.140   .     S
C473   C475    1.411   .     S
C475   C477    1.376   .     D
C475   S2097   1.737   .     S
C477   C936    1.422   .     S
S478   C481    1.736   .     S
S478   C486    1.709   .     S
O479   C485    1.254   .     D
O479   Zr1770  2.210   .     S
O480   C485    1.260   .     S
O480   Zr1876  2.270   .     S
C481   C482    1.346   .     D
C481   C485    1.479   .     S
C482   H483    1.140   .     S
C482   C484    1.411   .     S
C484   C486    1.376   .     D
C484   S2098   1.737   .     S
C486   C927    1.422   .     S
S487   C490    1.736   .     S
S487   C495    1.709   .     S
O488   C494    1.254   .     D
O488   Zr1771  2.210   .     S
O489   C494    1.260   .     S
O489   Zr1879  2.270   .     S
C490   C491    1.346   .     D
C490   C494    1.479   .     S
C491   H492    1.140   .     S
C491   C493    1.411   .     S
C493   C495    1.376   .     D
C493   S2127   1.737   .     S
C495   C918    1.422   .     S
S496   C499    1.736   .     S
S496   C504    1.709   .     S
O497   C503    1.254   .     D
O497   Zr1772  2.210   .     S
O498   C503    1.260   .     S
O498   Zr2005  2.270   .     S
C499   C500    1.346   .     D
C499   C503    1.479   .     S
C500   H501    1.140   .     S
C500   C502    1.411   .     S
C502   C504    1.376   .     D
C502   S2099   1.737   .     S
C504   C909    1.422   .     S
S505   C508    1.736   .     S
S505   C513    1.709   .     S
O506   C512    1.254   .     D
O506   Zr1773  2.210   .     S
O507   C512    1.260   .     S
O507   Zr1882  2.270   .     S
C508   C509    1.346   .     D
C508   C512    1.479   .     S
C509   H510    1.140   .     S
C509   C511    1.411   .     S
C511   C513    1.376   .     D
C511   S2100   1.737   .     S
C513   C1008   1.422   .     S
S514   C517    1.736   .     S
S514   C522    1.709   .     S
O515   C521    1.254   .     D
O515   Zr1774  2.210   .     S
O516   C521    1.260   .     S
O516   Zr2008  2.270   .     S
C517   C518    1.346   .     D
C517   C521    1.479   .     S
C518   H519    1.140   .     S
C518   C520    1.411   .     S
C520   C522    1.376   .     D
C520   S2101   1.737   .     S
C522   C999    1.422   .     S
S523   C526    1.736   .     S
S523   C531    1.709   .     S
O524   C530    1.254   .     D
O524   Zr1775  2.210   1_655 S
O525   C530    1.260   .     S
O525   Zr1885  2.270   .     S
C526   C527    1.346   .     D
C526   C530    1.479   .     S
C527   H528    1.140   .     S
C527   C529    1.411   .     S
C529   C531    1.376   .     D
C529   S2130   1.737   .     S
C531   C990    1.422   .     S
S532   C535    1.736   .     S
S532   C540    1.709   .     S
O533   C539    1.254   .     D
O533   Zr1776  2.210   1_655 D
O534   C539    1.260   .     S
O534   Zr1888  2.270   .     S
C535   C536    1.346   .     D
C535   C539    1.479   .     S
C536   H537    1.140   .     S
C536   C538    1.411   .     S
C538   C540    1.376   .     D
C538   S2129   1.737   .     S
C540   C981    1.422   .     S
S541   C544    1.736   .     S
S541   C549    1.709   .     S
O542   C548    1.254   .     D
O542   Zr1761  2.210   .     S
O543   C548    1.260   .     S
O543   Zr1891  2.270   .     S
C544   C545    1.346   .     D
C544   C548    1.479   .     S
C545   H546    1.140   .     S
C545   C547    1.411   .     S
C547   C549    1.376   .     D
C547   S2102   1.737   .     S
C549   C972    1.422   .     S
S550   C553    1.736   .     S
S550   C558    1.709   .     S
O551   C557    1.254   .     D
O551   Zr1762  2.210   .     S
O552   C557    1.260   .     S
O552   Zr1993  2.270   .     S
C553   C554    1.346   .     D
C553   C557    1.479   .     S
C554   H555    1.140   .     S
C554   C556    1.411   .     S
C556   C558    1.376   .     D
C556   S2103   1.737   .     S
C558   C963    1.422   .     S
S559   C562    1.736   .     S
S559   C567    1.709   .     S
O560   C566    1.254   .     D
O560   Zr1763  2.210   .     S
O561   C566    1.260   .     S
O561   Zr1894  2.270   .     S
C562   C563    1.346   .     D
C562   C566    1.479   .     S
C563   H564    1.140   .     S
C563   C565    1.411   .     S
C565   C567    1.376   .     D
C565   S2104   1.737   .     S
C567   C954    1.422   .     S
S568   C571    1.736   .     S
S568   C576    1.709   .     S
O569   C575    1.254   .     D
O569   Zr1764  2.210   .     S
O570   C575    1.260   .     S
O570   Zr1996  2.270   .     S
C571   C572    1.346   .     D
C571   C575    1.479   .     S
C572   H573    1.140   .     S
C572   C574    1.411   .     S
C574   C576    1.376   .     D
C574   S2128   1.737   .     S
C576   C945    1.422   .     S
S577   C580    1.736   .     S
S577   C585    1.709   .     S
O578   C584    1.254   .     D
O578   Zr1745  2.210   .     S
O579   C584    1.260   .     S
O579   Zr1897  2.270   .     S
C580   C581    1.346   .     D
C580   C584    1.479   .     S
C581   H582    1.140   .     S
C581   C583    1.411   .     S
C583   C585    1.376   .     D
C583   S2105   1.737   .     S
C585   C1251   1.422   .     S
S586   C589    1.736   .     S
S586   C594    1.709   .     S
O587   C593    1.254   .     D
O587   Zr1746  2.210   .     S
O588   C593    1.260   .     S
O588   Zr1900  2.270   .     S
C589   C590    1.346   .     D
C589   C593    1.479   .     S
C590   H591    1.140   .     S
C590   C592    1.411   .     S
C592   C594    1.376   .     D
C592   S2106   1.737   .     S
C594   C1260   1.422   .     S
S595   C598    1.736   .     S
S595   C603    1.709   .     S
O596   C602    1.254   .     D
O596   Zr1747  2.210   .     S
O597   C602    1.260   .     S
O597   Zr1978  2.270   .     S
C598   C599    1.346   .     D
C598   C602    1.479   .     S
C599   H600    1.140   .     S
C599   C601    1.411   .     S
C601   C603    1.376   .     D
C601   S2140   1.737   .     S
C603   C1233   1.422   .     S
S604   C607    1.736   .     S
S604   C612    1.709   .     S
O605   C611    1.254   .     D
O605   Zr1748  2.210   .     S
O606   C611    1.260   .     S
O606   Zr1975  2.270   .     S
C607   C608    1.346   .     D
C607   C611    1.479   .     S
C608   H609    1.140   .     S
C608   C610    1.411   .     S
C610   C612    1.376   .     D
C610   S2141   1.737   .     S
C612   C1242   1.422   .     S
S613   C616    1.736   .     S
S613   C621    1.709   .     S
O614   C620    1.254   .     D
O614   Zr1757  2.210   .     S
O615   C620    1.260   .     S
O615   Zr1903  2.270   .     S
C616   C617    1.346   .     D
C616   C620    1.479   .     S
C617   H618    1.140   .     S
C617   C619    1.411   .     S
C619   C621    1.376   .     D
C619   S2107   1.737   .     S
C621   C1287   1.422   .     S
S622   C625    1.736   .     S
S622   C630    1.709   .     S
O623   C629    1.254   .     D
O623   Zr1758  2.210   1_556 S
O624   C629    1.260   .     S
O624   Zr1906  2.270   .     S
C625   C626    1.346   .     D
C625   C629    1.479   .     S
C626   H627    1.140   .     S
C626   C628    1.411   .     S
C628   C630    1.376   .     D
C628   S2108   1.737   .     S
C630   C1296   1.422   .     S
S631   C634    1.736   .     S
S631   C639    1.709   .     S
O632   C638    1.254   .     D
O632   Zr1759  2.210   1_556 S
O633   C638    1.260   .     S
O633   Zr1909  2.270   .     S
C634   C635    1.346   .     D
C634   C638    1.479   .     S
C635   H636    1.140   .     S
C635   C637    1.411   .     S
C637   C639    1.376   .     D
C637   S2142   1.737   .     S
C639   C1269   1.422   .     S
S640   C643    1.736   .     S
S640   C648    1.709   .     S
O641   C647    1.254   .     D
O641   Zr1760  2.210   .     S
O642   C647    1.260   .     S
O642   Zr1990  2.270   .     S
C643   C644    1.346   .     D
C643   C647    1.479   .     S
C644   H645    1.140   .     S
C644   C646    1.411   .     S
C646   C648    1.376   .     D
C646   S2109   1.737   .     S
C648   C1278   1.422   .     S
S649   C652    1.736   .     S
S649   C657    1.709   .     S
O650   C656    1.254   .     D
O650   Zr1753  2.210   .     S
O651   C656    1.260   .     S
O651   Zr1912  2.270   .     S
C652   C653    1.346   .     D
C652   C656    1.479   .     S
C653   H654    1.140   .     S
C653   C655    1.411   .     S
C655   C657    1.376   .     D
C655   S2110   1.737   .     S
C657   C1215   1.422   .     S
S658   C661    1.736   .     S
S658   C666    1.709   .     S
O659   C665    1.254   .     D
O659   Zr1754  2.210   .     S
O660   C665    1.260   .     S
O660   Zr1915  2.270   .     S
C661   C662    1.346   .     D
C661   C665    1.479   .     S
C662   H663    1.140   .     S
C662   C664    1.411   .     S
C664   C666    1.376   .     D
C664   S2111   1.737   .     S
C666   C1224   1.422   .     S
S667   C670    1.736   .     S
S667   C675    1.709   .     S
O668   C674    1.254   .     D
O668   Zr1755  2.210   .     S
O669   C674    1.260   .     S
O669   Zr1987  2.270   .     S
C670   C671    1.346   .     D
C670   C674    1.479   .     S
C671   H672    1.140   .     S
C671   C673    1.411   .     S
C673   C675    1.376   .     D
C673   S2112   1.737   .     S
C675   C1197   1.422   .     S
S676   C679    1.736   .     S
S676   C684    1.709   .     S
O677   C683    1.254   .     D
O677   Zr1756  2.210   .     S
O678   C683    1.260   .     S
O678   Zr1918  2.270   .     S
C679   C680    1.346   .     D
C679   C683    1.479   .     S
C680   H681    1.140   .     S
C680   C682    1.411   .     S
C682   C684    1.376   .     D
C682   S2139   1.737   .     S
C684   C1206   1.422   .     S
S685   C688    1.736   .     S
S685   C693    1.709   .     S
O686   C692    1.254   .     D
O686   Zr1749  2.210   .     S
O687   C692    1.260   .     S
O687   Zr1921  2.270   .     S
C688   C689    1.346   .     D
C688   C692    1.479   .     S
C689   H690    1.140   .     S
C689   C691    1.411   .     S
C691   C693    1.376   .     D
C691   S2113   1.737   .     S
C693   C1179   1.422   .     S
S694   C697    1.736   .     S
S694   C702    1.709   .     S
O695   C701    1.254   .     D
O695   Zr1750  2.210   1_556 D
O696   C701    1.260   .     S
O696   Zr1924  2.270   .     S
C697   C698    1.346   .     D
C697   C701    1.479   .     S
C698   H699    1.140   .     S
C698   C700    1.411   .     S
C700   C702    1.376   .     D
C700   S2114   1.737   .     S
C702   C1188   1.422   .     S
S703   C706    1.736   .     S
S703   C711    1.709   .     S
O704   C710    1.254   .     D
O704   Zr1751  2.210   1_556 S
O705   C710    1.260   .     S
O705   Zr1984  2.270   .     S
C706   C707    1.346   .     D
C706   C710    1.479   .     S
C707   H708    1.140   .     S
C707   C709    1.411   .     S
C709   C711    1.376   .     D
C709   S2137   1.737   .     S
C711   C1161   1.422   .     S
S712   C715    1.736   .     S
S712   C720    1.709   .     S
O713   C719    1.254   .     D
O713   Zr1752  2.210   .     S
O714   C719    1.260   .     S
O714   Zr1981  2.270   .     S
C715   C716    1.346   .     D
C715   C719    1.479   .     S
C716   H717    1.140   .     S
C716   C718    1.411   .     S
C718   C720    1.376   .     D
C718   S2138   1.737   .     S
C720   C1170   1.422   .     S
S721   C724    1.736   .     S
S721   C729    1.709   .     S
O722   C728    1.254   .     D
O722   Zr1741  2.210   .     S
O723   C728    1.260   .     S
O723   Zr1927  2.270   .     S
C724   C725    1.346   .     D
C724   C728    1.479   .     S
C725   H726    1.140   .     S
C725   C727    1.411   .     S
C727   C729    1.376   .     D
C727   S2115   1.737   .     S
C729   C1134   1.422   .     S
S730   C733    1.736   .     S
S730   C738    1.709   .     S
O731   C737    1.254   .     D
O731   Zr1742  2.210   1_565 S
O732   C737    1.260   .     S
O732   Zr1930  2.270   .     S
C733   C734    1.346   .     D
C733   C737    1.479   .     S
C734   H735    1.140   .     S
C734   C736    1.411   .     S
C736   C738    1.376   .     D
C736   S2135   1.737   .     S
C738   C1125   1.422   .     S
S739   C742    1.736   .     S
S739   C747    1.709   .     S
O740   C746    1.254   .     D
O740   Zr1743  2.210   .     S
O741   C746    1.260   .     S
O741   Zr1969  2.270   .     S
C742   C743    1.346   .     D
C742   C746    1.479   .     S
C743   H744    1.140   .     S
C743   C745    1.411   .     S
C745   C747    1.376   .     D
C745   S2116   1.737   .     S
C747   C1152   1.422   .     S
S748   C751    1.736   .     S
S748   C756    1.709   .     S
O749   C755    1.254   .     D
O749   Zr1744  2.210   1_565 S
O750   C755    1.260   .     S
O750   Zr1972  2.270   .     S
C751   C752    1.346   .     D
C751   C755    1.479   .     S
C752   H753    1.140   .     S
C752   C754    1.411   .     S
C754   C756    1.376   .     D
C754   S2136   1.737   .     S
C756   C1143   1.422   .     S
S757   C760    1.736   .     S
S757   C765    1.709   .     S
O758   C764    1.254   .     D
O758   Zr1729  2.210   .     S
O759   C764    1.260   .     S
O759   Zr1933  2.270   .     S
C760   C761    1.346   .     D
C760   C764    1.479   .     S
C761   H762    1.140   .     S
C761   C763    1.411   .     S
C763   C765    1.376   .     D
C763   S2117   1.737   .     S
C765   C1098   1.422   .     S
S766   C769    1.736   .     S
S766   C774    1.709   .     S
O767   C773    1.254   .     D
O767   Zr1730  2.210   .     S
O768   C773    1.260   .     S
O768   Zr1936  2.270   .     S
C769   C770    1.346   .     D
C769   C773    1.479   .     S
C770   H771    1.140   .     S
C770   C772    1.411   .     S
C772   C774    1.376   .     D
C772   S2134   1.737   .     S
C774   C1089   1.422   .     S
S775   C778    1.736   .     S
S775   C783    1.709   .     S
O776   C782    1.254   .     D
O776   Zr1731  2.210   .     S
O777   C782    1.260   .     S
O777   Zr1957  2.270   .     S
C778   C779    1.346   .     D
C778   C782    1.479   .     S
C779   H780    1.140   .     S
C779   C781    1.411   .     S
C781   C783    1.376   .     D
C781   S2118   1.737   .     S
C783   C1116   1.422   .     S
S784   C787    1.736   .     S
S784   C792    1.709   .     S
O785   C791    1.254   .     D
O785   Zr1732  2.210   .     S
O786   C791    1.260   .     S
O786   Zr1960  2.270   .     S
C787   C788    1.346   .     D
C787   C791    1.479   .     S
C788   H789    1.140   .     S
C788   C790    1.411   .     S
C790   C792    1.376   .     D
C790   S2119   1.737   .     S
C792   C1107   1.422   .     S
S793   C796    1.736   .     S
S793   C801    1.709   .     S
O794   C800    1.254   .     D
O794   Zr1733  2.210   .     S
O795   C800    1.260   .     S
O795   Zr1939  2.270   .     S
C796   C797    1.346   .     D
C796   C800    1.479   .     S
C797   H798    1.140   .     S
C797   C799    1.411   .     S
C799   C801    1.376   .     D
C799   S2120   1.737   .     S
C801   C1026   1.422   .     S
S802   C805    1.736   .     S
S802   C810    1.709   .     S
O803   C809    1.254   .     D
O803   Zr1734  2.210   1_565 D
O804   C809    1.260   .     S
O804   Zr1942  2.270   .     S
C805   C806    1.346   .     D
C805   C809    1.479   .     S
C806   H807    1.140   .     S
C806   C808    1.411   .     S
C808   C810    1.376   .     D
C808   S2131   1.737   .     S
C810   C1017   1.422   .     S
S811   C814    1.736   .     S
S811   C819    1.709   .     S
O812   C818    1.254   .     D
O812   Zr1735  2.210   .     S
O813   C818    1.260   .     S
O813   Zr1963  2.270   .     S
C814   C815    1.346   .     D
C814   C818    1.479   .     S
C815   H816    1.140   .     S
C815   C817    1.411   .     S
C817   C819    1.376   .     D
C817   S2121   1.737   .     S
C819   C1044   1.422   .     S
S820   C823    1.736   .     S
S820   C828    1.709   .     S
O821   C827    1.254   .     D
O821   Zr1736  2.210   1_565 S
O822   C827    1.260   .     S
O822   Zr1945  2.270   .     S
C823   C824    1.346   .     D
C823   C827    1.479   .     S
C824   H825    1.140   .     S
C824   C826    1.411   .     S
C826   C828    1.376   .     D
C826   S2132   1.737   .     S
C828   C1035   1.422   .     S
S829   C832    1.736   .     S
S829   C837    1.709   .     S
O830   C836    1.254   .     D
O830   Zr1737  2.210   .     S
O831   C836    1.260   .     S
O831   Zr1948  2.270   .     S
C832   C833    1.346   .     D
C832   C836    1.479   .     S
C833   H834    1.140   .     S
C833   C835    1.411   .     S
C835   C837    1.376   .     D
C835   S2122   1.737   .     S
C837   C1062   1.422   .     S
S838   C841    1.736   .     S
S838   C846    1.709   .     S
O839   C845    1.254   .     D
O839   Zr1738  2.210   .     S
O840   C845    1.260   .     S
O840   Zr1951  2.270   .     S
C841   C842    1.346   .     D
C841   C845    1.479   .     S
C842   H843    1.140   .     S
C842   C844    1.411   .     S
C844   C846    1.376   .     D
C844   S2123   1.737   .     S
C846   C1053   1.422   .     S
S847   C850    1.736   .     S
S847   C855    1.709   .     S
O848   C854    1.254   .     D
O848   Zr1739  2.210   .     S
O849   C854    1.260   .     S
O849   Zr1954  2.270   .     S
C850   C851    1.346   .     D
C850   C854    1.479   .     S
C851   H852    1.140   .     S
C851   C853    1.411   .     S
C853   C855    1.376   .     D
C853   S2124   1.737   .     S
C855   C1080   1.422   .     S
S856   C859    1.736   .     S
S856   C864    1.709   .     S
O857   C863    1.254   .     D
O857   Zr1740  2.210   .     S
O858   C863    1.260   .     S
O858   Zr1966  2.270   .     S
C859   C860    1.346   .     D
C859   C863    1.479   .     S
C860   H861    1.140   .     S
C860   C862    1.411   .     S
C862   C864    1.376   .     D
C862   S2133   1.737   .     S
C864   C1071   1.422   .     S
S865   C868    1.736   .     S
S865   C873    1.709   .     S
O866   C872    1.254   .     D
O866   Zr1737  2.210   .     S
O867   C872    1.260   .     S
O867   Zr1957  2.270   .     S
C868   C869    1.346   .     D
C868   C872    1.479   .     S
C869   H870    1.140   .     S
C869   C871    1.411   .     S
C871   C873    1.376   .     D
C871   S2125   1.737   .     S
S874   C877    1.736   .     S
S874   C882    1.709   .     S
O875   C881    1.254   .     D
O875   Zr1738  2.210   .     S
O876   C881    1.260   .     S
O876   Zr1960  2.270   .     S
C877   C878    1.346   .     D
C877   C881    1.479   .     S
C878   H879    1.140   .     S
C878   C880    1.411   .     S
C880   C882    1.376   .     D
C880   S2126   1.737   .     S
S883   C886    1.736   .     S
S883   C891    1.709   .     S
O884   C890    1.254   .     D
O884   Zr1739  2.210   .     S
O885   C890    1.260   .     S
O885   Zr1933  2.270   .     S
C886   C887    1.346   .     D
C886   C890    1.479   .     S
C887   H888    1.140   .     S
C887   C889    1.411   .     S
C889   C891    1.376   .     D
C889   S2096   1.737   .     S
S892   C895    1.736   .     S
S892   C900    1.709   .     S
O893   C899    1.254   .     D
O893   Zr1740  2.210   .     S
O894   C899    1.260   .     S
O894   Zr1936  2.270   .     S
C895   C896    1.346   .     D
C895   C899    1.479   .     S
C896   H897    1.140   .     S
C896   C898    1.411   .     S
C898   C900    1.376   .     D
C898   S2095   1.737   .     S
S901   C904    1.736   .     S
S901   C909    1.709   .     S
O902   C908    1.254   .     D
O902   Zr1741  2.210   .     S
O903   C908    1.260   .     S
O903   Zr1963  2.270   .     S
C904   C905    1.346   .     D
C904   C908    1.479   .     S
C905   H906    1.140   .     S
C905   C907    1.411   .     S
C907   C909    1.376   .     D
C907   S2099   1.737   .     S
S910   C913    1.736   .     S
S910   C918    1.709   .     S
O911   C917    1.254   .     D
O911   Zr1742  2.210   1_565 S
O912   C917    1.260   .     S
O912   Zr1945  2.270   .     S
C913   C914    1.346   .     D
C913   C917    1.479   .     S
C914   H915    1.140   .     S
C914   C916    1.411   .     S
C916   C918    1.376   .     D
C916   S2127   1.737   .     S
S919   C922    1.736   .     S
S919   C927    1.709   .     S
O920   C926    1.254   .     D
O920   Zr1743  2.210   .     S
O921   C926    1.260   .     S
O921   Zr1939  2.270   .     S
C922   C923    1.346   .     D
C922   C926    1.479   .     S
C923   H924    1.140   .     S
C923   C925    1.411   .     S
C925   C927    1.376   .     D
C925   S2098   1.737   .     S
S928   C931    1.736   .     S
S928   C936    1.709   .     S
O929   C935    1.254   .     D
O929   Zr1744  2.210   1_565 S
O930   C935    1.260   .     S
O930   Zr1942  2.270   .     S
C931   C932    1.346   .     D
C931   C935    1.479   .     S
C932   H933    1.140   .     S
C932   C934    1.411   .     S
C934   C936    1.376   .     D
C934   S2097   1.737   .     S
S937   C940    1.736   .     S
S937   C945    1.709   .     S
O938   C944    1.254   .     D
O938   Zr1729  2.210   .     S
O939   C944    1.260   .     S
O939   Zr1954  2.270   .     S
C940   C941    1.346   .     D
C940   C944    1.479   .     S
C941   H942    1.140   .     S
C941   C943    1.411   .     S
C943   C945    1.376   .     D
C943   S2128   1.737   .     S
S946   C949    1.736   .     S
S946   C954    1.709   .     S
O947   C953    1.254   .     D
O947   Zr1730  2.210   .     S
O948   C953    1.260   .     S
O948   Zr1966  2.270   .     S
C949   C950    1.346   .     D
C949   C953    1.479   .     S
C950   H951    1.140   .     S
C950   C952    1.411   .     S
C952   C954    1.376   .     D
C952   S2104   1.737   .     S
S955   C958    1.736   .     S
S955   C963    1.709   .     S
O956   C962    1.254   .     D
O956   Zr1731  2.210   .     S
O957   C962    1.260   .     S
O957   Zr1948  2.270   .     S
C958   C959    1.346   .     D
C958   C962    1.479   .     S
C959   H960    1.140   .     S
C959   C961    1.411   .     S
C961   C963    1.376   .     D
C961   S2103   1.737   .     S
S964   C967    1.736   .     S
S964   C972    1.709   .     S
O965   C971    1.254   .     D
O965   Zr1732  2.210   .     S
O966   C971    1.260   .     S
O966   Zr1951  2.270   .     S
C967   C968    1.346   .     D
C967   C971    1.479   .     S
C968   H969    1.140   .     S
C968   C970    1.411   .     S
C970   C972    1.376   .     D
C970   S2102   1.737   .     S
S973   C976    1.736   .     S
S973   C981    1.709   .     S
O974   C980    1.254   .     D
O974   Zr1733  2.210   .     S
O975   C980    1.260   .     S
O975   Zr1969  2.270   .     S
C976   C977    1.346   .     D
C976   C980    1.479   .     S
C977   H978    1.140   .     S
C977   C979    1.411   .     S
C979   C981    1.376   .     D
C979   S2129   1.737   .     S
S982   C985    1.736   .     S
S982   C990    1.709   .     S
O983   C989    1.254   .     D
O983   Zr1734  2.210   1_565 S
O984   C989    1.260   .     S
O984   Zr1972  2.270   .     S
C985   C986    1.346   .     D
C985   C989    1.479   .     S
C986   H987    1.140   .     S
C986   C988    1.411   .     S
C988   C990    1.376   .     D
C988   S2130   1.737   .     S
S991   C994    1.736   .     S
S991   C999    1.709   .     S
O992   C998    1.254   .     D
O992   Zr1735  2.210   .     S
O993   C998    1.260   .     S
O993   Zr1927  2.270   .     S
C994   C995    1.346   .     D
C994   C998    1.479   .     S
C995   H996    1.140   .     S
C995   C997    1.411   .     S
C997   C999    1.376   .     D
C997   S2101   1.737   .     S
S1000  C1003   1.736   .     S
S1000  C1008   1.709   .     S
O1001  C1007   1.254   .     D
O1001  Zr1736  2.210   1_565 D
O1002  C1007   1.260   .     S
O1002  Zr1930  2.270   .     S
C1003  C1004   1.346   .     D
C1003  C1007   1.479   .     S
C1004  H1005   1.140   .     S
C1004  C1006   1.411   .     S
C1006  C1008   1.376   .     D
C1006  S2100   1.737   .     S
S1009  C1012   1.736   .     S
S1009  C1017   1.709   .     S
O1010  C1016   1.254   .     D
O1010  Zr1753  2.210   .     S
O1011  C1016   1.260   .     S
O1011  Zr1975  2.270   .     S
C1012  C1013   1.346   .     D
C1012  C1016   1.479   .     S
C1013  H1014   1.140   .     S
C1013  C1015   1.411   .     S
C1015  C1017   1.376   .     D
C1015  S2131   1.737   .     S
S1018  C1021   1.736   .     S
S1018  C1026   1.709   .     S
O1019  C1025   1.254   .     D
O1019  Zr1754  2.210   .     S
O1020  C1025   1.260   .     S
O1020  Zr1978  2.270   .     S
C1021  C1022   1.346   .     D
C1021  C1025   1.479   .     S
C1022  H1023   1.140   .     S
C1022  C1024   1.411   .     S
C1024  C1026   1.376   .     D
C1024  S2120   1.737   .     S
S1027  C1030   1.736   .     S
S1027  C1035   1.709   .     S
O1028  C1034   1.254   .     D
O1028  Zr1755  2.210   .     S
O1029  C1034   1.260   .     S
O1029  Zr1900  2.270   .     S
C1030  C1031   1.346   .     D
C1030  C1034   1.479   .     S
C1031  H1032   1.140   .     S
C1031  C1033   1.411   .     S
C1033  C1035   1.376   .     D
C1033  S2132   1.737   .     S
S1036  C1039   1.736   .     S
S1036  C1044   1.709   .     S
O1037  C1043   1.254   .     D
O1037  Zr1756  2.210   .     S
O1038  C1043   1.260   .     S
O1038  Zr1897  2.270   .     S
C1039  C1040   1.346   .     D
C1039  C1043   1.479   .     S
C1040  H1041   1.140   .     S
C1040  C1042   1.411   .     S
C1042  C1044   1.376   .     D
C1042  S2121   1.737   .     S
S1045  C1048   1.736   .     S
S1045  C1053   1.709   .     S
O1046  C1052   1.254   .     D
O1046  Zr1757  2.210   .     S
O1047  C1052   1.260   .     S
O1047  Zr1981  2.270   .     S
C1048  C1049   1.346   .     D
C1048  C1052   1.479   .     S
C1049  H1050   1.140   .     S
C1049  C1051   1.411   .     S
C1051  C1053   1.376   .     D
C1051  S2123   1.737   .     S
S1054  C1057   1.736   .     S
S1054  C1062   1.709   .     S
O1055  C1061   1.254   .     D
O1055  Zr1758  2.210   1_556 S
O1056  C1061   1.260   .     S
O1056  Zr1984  2.270   .     S
C1057  C1058   1.346   .     D
C1057  C1061   1.479   .     S
C1058  H1059   1.140   .     S
C1058  C1060   1.411   .     S
C1060  C1062   1.376   .     D
C1060  S2122   1.737   .     S
S1063  C1066   1.736   .     S
S1063  C1071   1.709   .     S
O1064  C1070   1.254   .     D
O1064  Zr1759  2.210   1_556 S
O1065  C1070   1.260   .     S
O1065  Zr1924  2.270   .     S
C1066  C1067   1.346   .     D
C1066  C1070   1.479   .     S
C1067  H1068   1.140   .     S
C1067  C1069   1.411   .     S
C1069  C1071   1.376   .     D
C1069  S2133   1.737   .     S
S1072  C1075   1.736   .     S
S1072  C1080   1.709   .     S
O1073  C1079   1.254   .     D
O1073  Zr1760  2.210   .     S
O1074  C1079   1.260   .     S
O1074  Zr1921  2.270   .     S
C1075  C1076   1.346   .     D
C1075  C1079   1.479   .     S
C1076  H1077   1.140   .     S
C1076  C1078   1.411   .     S
C1078  C1080   1.376   .     D
C1078  S2124   1.737   .     S
S1081  C1084   1.736   .     S
S1081  C1089   1.709   .     S
O1082  C1088   1.254   .     D
O1082  Zr1745  2.210   .     S
O1083  C1088   1.260   .     S
O1083  Zr1918  2.270   .     S
C1084  C1085   1.346   .     D
C1084  C1088   1.479   .     S
C1085  H1086   1.140   .     S
C1085  C1087   1.411   .     S
C1087  C1089   1.376   .     D
C1087  S2134   1.737   .     S
S1090  C1093   1.736   .     S
S1090  C1098   1.709   .     S
O1091  C1097   1.254   .     D
O1091  Zr1746  2.210   .     S
O1092  C1097   1.260   .     S
O1092  Zr1987  2.270   .     S
C1093  C1094   1.346   .     D
C1093  C1097   1.479   .     S
C1094  H1095   1.140   .     S
C1094  C1096   1.411   .     S
C1096  C1098   1.376   .     D
C1096  S2117   1.737   .     S
S1099  C1102   1.736   .     S
S1099  C1107   1.709   .     S
O1100  C1106   1.254   .     D
O1100  Zr1747  2.210   .     S
O1101  C1106   1.260   .     S
O1101  Zr1915  2.270   .     S
C1102  C1103   1.346   .     D
C1102  C1106   1.479   .     S
C1103  H1104   1.140   .     S
C1103  C1105   1.411   .     S
C1105  C1107   1.376   .     D
C1105  S2119   1.737   .     S
S1108  C1111   1.736   .     S
S1108  C1116   1.709   .     S
O1109  C1115   1.254   .     D
O1109  Zr1748  2.210   .     S
O1110  C1115   1.260   .     S
O1110  Zr1912  2.270   .     S
C1111  C1112   1.346   .     D
C1111  C1115   1.479   .     S
C1112  H1113   1.140   .     S
C1112  C1114   1.411   .     S
C1114  C1116   1.376   .     D
C1114  S2118   1.737   .     S
S1117  C1120   1.736   .     S
S1117  C1125   1.709   .     S
O1118  C1124   1.254   .     D
O1118  Zr1749  2.210   .     S
O1119  C1124   1.260   .     S
O1119  Zr1990  2.270   .     S
C1120  C1121   1.346   .     D
C1120  C1124   1.479   .     S
C1121  H1122   1.140   .     S
C1121  C1123   1.411   .     S
C1123  C1125   1.376   .     D
C1123  S2135   1.737   .     S
S1126  C1129   1.736   .     S
S1126  C1134   1.709   .     S
O1127  C1133   1.254   .     D
O1127  Zr1750  2.210   1_556 S
O1128  C1133   1.260   .     S
O1128  Zr1909  2.270   .     S
C1129  C1130   1.346   .     D
C1129  C1133   1.479   .     S
C1130  H1131   1.140   .     S
C1130  C1132   1.411   .     S
C1132  C1134   1.376   .     D
C1132  S2115   1.737   .     S
S1135  C1138   1.736   .     S
S1135  C1143   1.709   .     S
O1136  C1142   1.254   .     D
O1136  Zr1751  2.210   1_556 D
O1137  C1142   1.260   .     S
O1137  Zr1906  2.270   .     S
C1138  C1139   1.346   .     D
C1138  C1142   1.479   .     S
C1139  H1140   1.140   .     S
C1139  C1141   1.411   .     S
C1141  C1143   1.376   .     D
C1141  S2136   1.737   .     S
S1144  C1147   1.736   .     S
S1144  C1152   1.709   .     S
O1145  C1151   1.254   .     D
O1145  Zr1752  2.210   .     S
O1146  C1151   1.260   .     S
O1146  Zr1903  2.270   .     S
C1147  C1148   1.346   .     D
C1147  C1151   1.479   .     S
C1148  H1149   1.140   .     S
C1148  C1150   1.411   .     S
C1150  C1152   1.376   .     D
C1150  S2116   1.737   .     S
S1153  C1156   1.736   .     S
S1153  C1161   1.709   .     S
O1154  C1160   1.254   .     D
O1154  Zr1769  2.210   .     S
O1155  C1160   1.260   .     S
O1155  Zr1993  2.270   .     S
C1156  C1157   1.346   .     D
C1156  C1160   1.479   .     S
C1157  H1158   1.140   .     S
C1157  C1159   1.411   .     S
C1159  C1161   1.376   .     D
C1159  S2137   1.737   .     S
S1162  C1165   1.736   .     S
S1162  C1170   1.709   .     S
O1163  C1169   1.254   .     D
O1163  Zr1770  2.210   .     S
O1164  C1169   1.260   .     S
O1164  Zr1891  2.270   .     S
C1165  C1166   1.346   .     D
C1165  C1169   1.479   .     S
C1166  H1167   1.140   .     S
C1166  C1168   1.411   .     S
C1168  C1170   1.376   .     D
C1168  S2138   1.737   .     S
S1171  C1174   1.736   .     S
S1171  C1179   1.709   .     S
O1172  C1178   1.254   .     D
O1172  Zr1771  2.210   .     S
O1173  C1178   1.260   .     S
O1173  Zr1996  2.270   .     S
C1174  C1175   1.346   .     D
C1174  C1178   1.479   .     S
C1175  H1176   1.140   .     S
C1175  C1177   1.411   .     S
C1177  C1179   1.376   .     D
C1177  S2113   1.737   .     S
S1180  C1183   1.736   .     S
S1180  C1188   1.709   .     S
O1181  C1187   1.254   .     D
O1181  Zr1772  2.210   .     S
O1182  C1187   1.260   .     S
O1182  Zr1894  2.270   .     S
C1183  C1184   1.346   .     D
C1183  C1187   1.479   .     S
C1184  H1185   1.140   .     S
C1184  C1186   1.411   .     S
C1186  C1188   1.376   .     D
C1186  S2114   1.737   .     S
S1189  C1192   1.736   .     S
S1189  C1197   1.709   .     S
O1190  C1196   1.254   .     D
O1190  Zr1773  2.210   .     S
O1191  C1196   1.260   .     S
O1191  Zr1999  2.270   .     S
C1192  C1193   1.346   .     D
C1192  C1196   1.479   .     S
C1193  H1194   1.140   .     S
C1193  C1195   1.411   .     S
C1195  C1197   1.376   .     D
C1195  S2112   1.737   .     S
S1198  C1201   1.736   .     S
S1198  C1206   1.709   .     S
O1199  C1205   1.254   .     D
O1199  Zr1774  2.210   .     S
O1200  C1205   1.260   .     S
O1200  Zr1867  2.270   .     S
C1201  C1202   1.346   .     D
C1201  C1205   1.479   .     S
C1202  H1203   1.140   .     S
C1202  C1204   1.411   .     S
C1204  C1206   1.376   .     D
C1204  S2139   1.737   .     S
S1207  C1210   1.736   .     S
S1207  C1215   1.709   .     S
O1208  C1214   1.254   .     D
O1208  Zr1775  2.210   1_655 S
O1209  C1214   1.260   .     S
O1209  Zr2002  2.270   .     S
C1210  C1211   1.346   .     D
C1210  C1214   1.479   .     S
C1211  H1212   1.140   .     S
C1211  C1213   1.411   .     S
C1213  C1215   1.376   .     D
C1213  S2110   1.737   .     S
S1216  C1219   1.736   .     S
S1216  C1224   1.709   .     S
O1217  C1223   1.254   .     D
O1217  Zr1776  2.210   1_655 S
O1218  C1223   1.260   .     S
O1218  Zr1870  2.270   .     S
C1219  C1220   1.346   .     D
C1219  C1223   1.479   .     S
C1220  H1221   1.140   .     S
C1220  C1222   1.411   .     S
C1222  C1224   1.376   .     D
C1222  S2111   1.737   .     S
S1225  C1228   1.736   .     S
S1225  C1233   1.709   .     S
O1226  C1232   1.254   .     D
O1226  Zr1761  2.210   .     S
O1227  C1232   1.260   .     S
O1227  Zr1876  2.270   .     S
C1228  C1229   1.346   .     D
C1228  C1232   1.479   .     S
C1229  H1230   1.140   .     S
C1229  C1231   1.411   .     S
C1231  C1233   1.376   .     D
C1231  S2140   1.737   .     S
S1234  C1237   1.736   .     S
S1234  C1242   1.709   .     S
O1235  C1241   1.254   .     D
O1235  Zr1762  2.210   .     S
O1236  C1241   1.260   .     S
O1236  Zr1873  2.270   .     S
C1237  C1238   1.346   .     D
C1237  C1241   1.479   .     S
C1238  H1239   1.140   .     S
C1238  C1240   1.411   .     S
C1240  C1242   1.376   .     D
C1240  S2141   1.737   .     S
S1243  C1246   1.736   .     S
S1243  C1251   1.709   .     S
O1244  C1250   1.254   .     D
O1244  Zr1763  2.210   .     S
O1245  C1250   1.260   .     S
O1245  Zr2005  2.270   .     S
C1246  C1247   1.346   .     D
C1246  C1250   1.479   .     S
C1247  H1248   1.140   .     S
C1247  C1249   1.411   .     S
C1249  C1251   1.376   .     D
C1249  S2105   1.737   .     S
S1252  C1255   1.736   .     S
S1252  C1260   1.709   .     S
O1253  C1259   1.254   .     D
O1253  Zr1764  2.210   .     S
O1254  C1259   1.260   .     S
O1254  Zr1879  2.270   .     S
C1255  C1256   1.346   .     D
C1255  C1259   1.479   .     S
C1256  H1257   1.140   .     S
C1256  C1258   1.411   .     S
C1258  C1260   1.376   .     D
C1258  S2106   1.737   .     S
S1261  C1264   1.736   .     S
S1261  C1269   1.709   .     S
O1262  C1268   1.254   .     D
O1262  Zr1765  2.210   .     S
O1263  C1268   1.260   .     S
O1263  Zr2008  2.270   .     S
C1264  C1265   1.346   .     D
C1264  C1268   1.479   .     S
C1265  H1266   1.140   .     S
C1265  C1267   1.411   .     S
C1267  C1269   1.376   .     D
C1267  S2142   1.737   .     S
S1270  C1273   1.736   .     S
S1270  C1278   1.709   .     S
O1271  C1277   1.254   .     D
O1271  Zr1766  2.210   .     S
O1272  C1277   1.260   .     S
O1272  Zr1882  2.270   .     S
C1273  C1274   1.346   .     D
C1273  C1277   1.479   .     S
C1274  H1275   1.140   .     S
C1274  C1276   1.411   .     S
C1276  C1278   1.376   .     D
C1276  S2109   1.737   .     S
S1279  C1282   1.736   .     S
S1279  C1287   1.709   .     S
O1280  C1286   1.254   .     D
O1280  Zr1767  2.210   1_655 S
O1281  C1286   1.260   .     S
O1281  Zr1888  2.270   .     S
C1282  C1283   1.346   .     D
C1282  C1286   1.479   .     S
C1283  H1284   1.140   .     S
C1283  C1285   1.411   .     S
C1285  C1287   1.376   .     D
C1285  S2107   1.737   .     S
S1288  C1291   1.736   .     S
S1288  C1296   1.709   .     S
O1289  C1295   1.254   .     D
O1289  Zr1768  2.210   1_655 D
O1290  C1295   1.260   .     S
O1290  Zr1885  2.270   .     S
C1291  C1292   1.346   .     D
C1291  C1295   1.479   .     S
C1292  H1293   1.140   .     S
C1292  C1294   1.411   .     S
C1294  C1296   1.376   .     D
C1294  S2108   1.737   .     S
S1297  C1300   1.736   .     S
S1297  C1305   1.709   .     S
O1298  C1304   1.254   .     D
O1298  Zr1773  2.210   .     S
O1299  C1304   1.260   .     S
O1299  Zr2011  2.270   .     S
C1300  C1301   1.346   .     D
C1300  C1304   1.479   .     S
C1301  H1302   1.140   .     S
C1301  C1303   1.411   .     S
C1303  C1305   1.376   .     D
C1303  S2143   1.737   .     S
S1306  C1309   1.736   .     S
S1306  C1314   1.709   .     S
O1307  C1313   1.254   .     D
O1307  Zr1774  2.210   .     S
O1308  C1313   1.260   .     S
O1308  Zr1843  2.270   .     S
C1309  C1310   1.346   .     D
C1309  C1313   1.479   .     S
C1310  H1311   1.140   .     S
C1310  C1312   1.411   .     S
C1312  C1314   1.376   .     D
C1312  S2144   1.737   .     S
S1315  C1318   1.736   .     S
S1315  C1323   1.709   .     S
O1316  C1322   1.254   .     D
O1316  Zr1775  2.210   .     S
O1317  C1322   1.260   .     S
O1317  Zr2014  2.270   .     S
C1318  C1319   1.346   .     D
C1318  C1322   1.479   .     S
C1319  H1320   1.140   .     S
C1319  C1321   1.411   .     S
C1321  C1323   1.376   .     D
C1321  S2066   1.737   .     S
S1324  C1327   1.736   .     S
S1324  C1332   1.709   .     S
O1325  C1331   1.254   .     D
O1325  Zr1776  2.210   .     S
O1326  C1331   1.260   .     S
O1326  Zr1846  2.270   .     S
C1327  C1328   1.346   .     D
C1327  C1331   1.479   .     S
C1328  H1329   1.140   .     S
C1328  C1330   1.411   .     S
C1330  C1332   1.376   .     D
C1330  S2065   1.737   .     S
S1333  C1336   1.736   .     S
S1333  C1341   1.709   .     S
O1334  C1340   1.254   .     D
O1334  Zr1761  2.210   .     S
O1335  C1340   1.260   .     S
O1335  Zr1852  2.270   .     S
C1336  C1337   1.346   .     D
C1336  C1340   1.479   .     S
C1337  H1338   1.140   .     S
C1337  C1339   1.411   .     S
C1339  C1341   1.376   .     D
C1339  S2069   1.737   .     S
S1342  C1345   1.736   .     S
S1342  C1350   1.709   .     S
O1343  C1349   1.254   .     D
O1343  Zr1762  2.210   .     S
O1344  C1349   1.260   .     S
O1344  Zr1849  2.270   .     S
C1345  C1346   1.346   .     D
C1345  C1349   1.479   .     S
C1346  H1347   1.140   .     S
C1346  C1348   1.411   .     S
C1348  C1350   1.376   .     D
C1348  S2145   1.737   .     S
S1351  C1354   1.736   .     S
S1351  C1359   1.709   .     S
O1352  C1358   1.254   .     D
O1352  Zr1763  2.210   1_655 S
O1353  C1358   1.260   .     S
O1353  Zr2017  2.270   .     S
C1354  C1355   1.346   .     D
C1354  C1358   1.479   .     S
C1355  H1356   1.140   .     S
C1355  C1357   1.411   .     S
C1357  C1359   1.376   .     D
C1357  S2068   1.737   .     S
S1360  C1363   1.736   .     S
S1360  C1368   1.709   .     S
O1361  C1367   1.254   .     D
O1361  Zr1764  2.210   1_655 S
O1362  C1367   1.260   .     S
O1362  Zr1855  2.270   .     S
C1363  C1364   1.346   .     D
C1363  C1367   1.479   .     S
C1364  H1365   1.140   .     S
C1364  C1366   1.411   .     S
C1366  C1368   1.376   .     D
C1366  S2067   1.737   .     S
S1369  C1372   1.736   .     S
S1369  C1377   1.709   .     S
O1370  C1376   1.254   .     D
O1370  Zr1765  2.210   .     S
O1371  C1376   1.260   .     S
O1371  Zr2020  2.270   .     S
C1372  C1373   1.346   .     D
C1372  C1376   1.479   .     S
C1373  H1374   1.140   .     S
C1373  C1375   1.411   .     S
C1375  C1377   1.376   .     D
C1375  S2146   1.737   .     S
S1378  C1381   1.736   .     S
S1378  C1386   1.709   .     S
O1379  C1385   1.254   .     D
O1379  Zr1766  2.210   .     S
O1380  C1385   1.260   .     S
O1380  Zr1858  2.270   .     S
C1381  C1382   1.346   .     D
C1381  C1385   1.479   .     S
C1382  H1383   1.140   .     S
C1382  C1384   1.411   .     S
C1384  C1386   1.376   .     D
C1384  S2147   1.737   .     S
S1387  C1390   1.736   .     S
S1387  C1395   1.709   .     S
O1388  C1394   1.254   .     D
O1388  Zr1767  2.210   .     S
O1389  C1394   1.260   .     S
O1389  Zr1864  2.270   .     S
C1390  C1391   1.346   .     D
C1390  C1394   1.479   .     S
C1391  H1392   1.140   .     S
C1391  C1393   1.411   .     S
C1393  C1395   1.376   .     D
C1393  S2074   1.737   .     S
S1396  C1399   1.736   .     S
S1396  C1404   1.709   .     S
O1397  C1403   1.254   .     D
O1397  Zr1768  2.210   .     S
O1398  C1403   1.260   .     S
O1398  Zr1861  2.270   .     S
C1399  C1400   1.346   .     D
C1399  C1403   1.479   .     S
C1400  H1401   1.140   .     S
C1400  C1402   1.411   .     S
C1402  C1404   1.376   .     D
C1402  S2073   1.737   .     S
S1405  C1408   1.736   .     S
S1405  C1413   1.709   .     S
O1406  C1412   1.254   .     D
O1406  Zr1769  2.210   .     S
O1407  C1412   1.260   .     S
O1407  Zr2023  2.270   .     S
C1408  C1409   1.346   .     D
C1408  C1412   1.479   .     S
C1409  H1410   1.140   .     S
C1409  C1411   1.411   .     S
C1411  C1413   1.376   .     D
C1411  S2148   1.737   .     S
S1414  C1417   1.736   .     S
S1414  C1422   1.709   .     S
O1415  C1421   1.254   .     D
O1415  Zr1770  2.210   .     S
O1416  C1421   1.260   .     S
O1416  Zr1837  2.270   .     S
C1417  C1418   1.346   .     D
C1417  C1421   1.479   .     S
C1418  H1419   1.140   .     S
C1418  C1420   1.411   .     S
C1420  C1422   1.376   .     D
C1420  S2072   1.737   .     S
S1423  C1426   1.736   .     S
S1423  C1431   1.709   .     S
O1424  C1430   1.254   .     D
O1424  Zr1771  2.210   1_655 S
O1425  C1430   1.260   .     S
O1425  Zr2026  2.270   .     S
C1426  C1427   1.346   .     D
C1426  C1430   1.479   .     S
C1427  H1428   1.140   .     S
C1427  C1429   1.411   .     S
C1429  C1431   1.376   .     D
C1429  S2071   1.737   .     S
S1432  C1435   1.736   .     S
S1432  C1440   1.709   .     S
O1433  C1439   1.254   .     D
O1433  Zr1772  2.210   1_655 S
O1434  C1439   1.260   .     S
O1434  Zr1840  2.270   .     S
C1435  C1436   1.346   .     D
C1435  C1439   1.479   .     S
C1436  H1437   1.140   .     S
C1436  C1438   1.411   .     S
C1438  C1440   1.376   .     D
C1438  S2070   1.737   .     S
S1441  C1444   1.736   .     S
S1441  C1449   1.709   .     S
O1442  C1448   1.254   .     D
O1442  Zr1753  2.210   .     S
O1443  C1448   1.260   .     S
O1443  Zr2029  2.270   .     S
C1444  C1445   1.346   .     D
C1444  C1448   1.479   .     S
C1445  H1446   1.140   .     S
C1445  C1447   1.411   .     S
C1447  C1449   1.376   .     D
C1447  S2149   1.737   .     S
S1450  C1453   1.736   .     S
S1450  C1458   1.709   .     S
O1451  C1457   1.254   .     D
O1451  Zr1754  2.210   1_556 D
O1452  C1457   1.260   .     S
O1452  Zr2032  2.270   .     S
C1453  C1454   1.346   .     D
C1453  C1457   1.479   .     S
C1454  H1455   1.140   .     S
C1454  C1456   1.411   .     S
C1456  C1458   1.376   .     D
C1456  S2150   1.737   .     S
S1459  C1462   1.736   .     S
S1459  C1467   1.709   .     S
O1460  C1466   1.254   .     D
O1460  Zr1755  2.210   1_556 S
O1461  C1466   1.260   .     S
O1461  Zr1810  2.270   .     S
C1462  C1463   1.346   .     D
C1462  C1466   1.479   .     S
C1463  H1464   1.140   .     S
C1463  C1465   1.411   .     S
C1465  C1467   1.376   .     D
C1465  S2090   1.737   .     S
S1468  C1471   1.736   .     S
S1468  C1476   1.709   .     S
O1469  C1475   1.254   .     D
O1469  Zr1756  2.210   .     S
O1470  C1475   1.260   .     S
O1470  Zr1807  2.270   .     S
C1471  C1472   1.346   .     D
C1471  C1475   1.479   .     S
C1472  H1473   1.140   .     S
C1472  C1474   1.411   .     S
C1474  C1476   1.376   .     D
C1474  S2091   1.737   .     S
S1477  C1480   1.736   .     S
S1477  C1485   1.709   .     S
O1478  C1484   1.254   .     D
O1478  Zr1749  2.210   .     S
O1479  C1484   1.260   .     S
O1479  Zr2035  2.270   .     S
C1480  C1481   1.346   .     D
C1480  C1484   1.479   .     S
C1481  H1482   1.140   .     S
C1481  C1483   1.411   .     S
C1483  C1485   1.376   .     D
C1483  S2151   1.737   .     S
S1486  C1489   1.736   .     S
S1486  C1494   1.709   .     S
O1487  C1493   1.254   .     D
O1487  Zr1750  2.210   .     S
O1488  C1493   1.260   .     S
O1488  Zr1834  2.270   .     S
C1489  C1490   1.346   .     D
C1489  C1493   1.479   .     S
C1490  H1491   1.140   .     S
C1490  C1492   1.411   .     S
C1492  C1494   1.376   .     D
C1492  S2094   1.737   .     S
S1495  C1498   1.736   .     S
S1495  C1503   1.709   .     S
O1496  C1502   1.254   .     D
O1496  Zr1751  2.210   .     S
O1497  C1502   1.260   .     S
O1497  Zr1831  2.270   .     S
C1498  C1499   1.346   .     D
C1498  C1502   1.479   .     S
C1499  H1500   1.140   .     S
C1499  C1501   1.411   .     S
C1501  C1503   1.376   .     D
C1501  S2092   1.737   .     S
S1504  C1507   1.736   .     S
S1504  C1512   1.709   .     S
O1505  C1511   1.254   .     D
O1505  Zr1752  2.210   .     S
O1506  C1511   1.260   .     S
O1506  Zr1828  2.270   .     S
C1507  C1508   1.346   .     D
C1507  C1511   1.479   .     S
C1508  H1509   1.140   .     S
C1508  C1510   1.411   .     S
C1510  C1512   1.376   .     D
C1510  S2093   1.737   .     S
S1513  C1516   1.736   .     S
S1513  C1521   1.709   .     S
O1514  C1520   1.254   .     D
O1514  Zr1745  2.210   .     S
O1515  C1520   1.260   .     S
O1515  Zr1825  2.270   .     S
C1516  C1517   1.346   .     D
C1516  C1520   1.479   .     S
C1517  H1518   1.140   .     S
C1517  C1519   1.411   .     S
C1519  C1521   1.376   .     D
C1519  S2089   1.737   .     S
S1522  C1525   1.736   .     S
S1522  C1530   1.709   .     S
O1523  C1529   1.254   .     D
O1523  Zr1746  2.210   1_556 S
O1524  C1529   1.260   .     S
O1524  Zr2038  2.270   .     S
C1525  C1526   1.346   .     D
C1525  C1529   1.479   .     S
C1526  H1527   1.140   .     S
C1526  C1528   1.411   .     S
C1528  C1530   1.376   .     D
C1528  S2152   1.737   .     S
S1531  C1534   1.736   .     S
S1531  C1539   1.709   .     S
O1532  C1538   1.254   .     D
O1532  Zr1747  2.210   1_556 D
O1533  C1538   1.260   .     S
O1533  Zr1822  2.270   .     S
C1534  C1535   1.346   .     D
C1534  C1538   1.479   .     S
C1535  H1536   1.140   .     S
C1535  C1537   1.411   .     S
C1537  C1539   1.376   .     D
C1537  S2087   1.737   .     S
S1540  C1543   1.736   .     S
S1540  C1548   1.709   .     S
O1541  C1547   1.254   .     D
O1541  Zr1748  2.210   .     S
O1542  C1547   1.260   .     S
O1542  Zr1819  2.270   .     S
C1543  C1544   1.346   .     D
C1543  C1547   1.479   .     S
C1544  H1545   1.140   .     S
C1544  C1546   1.411   .     S
C1546  C1548   1.376   .     D
C1546  S2088   1.737   .     S
S1549  C1552   1.736   .     S
S1549  C1557   1.709   .     S
O1550  C1556   1.254   .     D
O1550  Zr1757  2.210   .     S
O1551  C1556   1.260   .     S
O1551  Zr2041  2.270   .     S
C1552  C1553   1.346   .     D
C1552  C1556   1.479   .     S
C1553  H1554   1.140   .     S
C1553  C1555   1.411   .     S
C1555  C1557   1.376   .     D
C1555  S2153   1.737   .     S
S1558  C1561   1.736   .     S
S1558  C1566   1.709   .     S
O1559  C1565   1.254   .     D
O1559  Zr1758  2.210   .     S
O1560  C1565   1.260   .     S
O1560  Zr2044  2.270   .     S
C1561  C1562   1.346   .     D
C1561  C1565   1.479   .     S
C1562  H1563   1.140   .     S
C1562  C1564   1.411   .     S
C1564  C1566   1.376   .     D
C1564  S2154   1.737   .     S
S1567  C1570   1.736   .     S
S1567  C1575   1.709   .     S
O1568  C1574   1.254   .     D
O1568  Zr1759  2.210   .     S
O1569  C1574   1.260   .     S
O1569  Zr1816  2.270   .     S
C1570  C1571   1.346   .     D
C1570  C1574   1.479   .     S
C1571  H1572   1.140   .     S
C1571  C1573   1.411   .     S
C1573  C1575   1.376   .     D
C1573  S2085   1.737   .     S
S1576  C1579   1.736   .     S
S1576  C1584   1.709   .     S
O1577  C1583   1.254   .     D
O1577  Zr1760  2.210   .     S
O1578  C1583   1.260   .     S
O1578  Zr1813  2.270   .     S
C1579  C1580   1.346   .     D
C1579  C1583   1.479   .     S
C1580  H1581   1.140   .     S
C1580  C1582   1.411   .     S
C1582  C1584   1.376   .     D
C1582  S2086   1.737   .     S
S1585  C1588   1.736   .     S
S1585  C1593   1.709   .     S
O1586  C1592   1.254   .     D
O1586  Zr1733  2.210   .     S
O1587  C1592   1.260   .     S
O1587  Zr2047  2.270   .     S
C1588  C1589   1.346   .     D
C1588  C1592   1.479   .     S
C1589  H1590   1.140   .     S
C1589  C1591   1.411   .     S
C1591  C1593   1.376   .     D
C1591  S2155   1.737   .     S
S1594  C1597   1.736   .     S
S1594  C1602   1.709   .     S
O1595  C1601   1.254   .     D
O1595  Zr1734  2.210   .     S
O1596  C1601   1.260   .     S
O1596  Zr2050  2.270   .     S
C1597  C1598   1.346   .     D
C1597  C1601   1.479   .     S
C1598  H1599   1.140   .     S
C1598  C1600   1.411   .     S
C1600  C1602   1.376   .     D
C1600  S2083   1.737   .     S
S1603  C1606   1.736   .     S
S1603  C1611   1.709   .     S
O1604  C1610   1.254   .     D
O1604  Zr1735  2.210   .     S
O1605  C1610   1.260   .     S
O1605  Zr1801  2.270   .     S
C1606  C1607   1.346   .     D
C1606  C1610   1.479   .     S
C1607  H1608   1.140   .     S
C1607  C1609   1.411   .     S
C1609  C1611   1.376   .     D
C1609  S2156   1.737   .     S
S1612  C1615   1.736   .     S
S1612  C1620   1.709   .     S
O1613  C1619   1.254   .     D
O1613  Zr1736  2.210   .     S
O1614  C1619   1.260   .     S
O1614  Zr1804  2.270   .     S
C1615  C1616   1.346   .     D
C1615  C1619   1.479   .     S
C1616  H1617   1.140   .     S
C1616  C1618   1.411   .     S
C1618  C1620   1.376   .     D
C1618  S2084   1.737   .     S
S1621  C1624   1.736   .     S
S1621  C1629   1.709   .     S
O1622  C1628   1.254   .     D
O1622  Zr1737  2.210   .     S
O1623  C1628   1.260   .     S
O1623  Zr2053  2.270   .     S
C1624  C1625   1.346   .     D
C1624  C1628   1.479   .     S
C1625  H1626   1.140   .     S
C1625  C1627   1.411   .     S
C1627  C1629   1.376   .     D
C1627  S2157   1.737   .     S
S1630  C1633   1.736   .     S
S1630  C1638   1.709   .     S
O1631  C1637   1.254   .     D
O1631  Zr1738  2.210   1_565 S
O1632  C1637   1.260   .     S
O1632  Zr2056  2.270   .     S
C1633  C1634   1.346   .     D
C1633  C1637   1.479   .     S
C1634  H1635   1.140   .     S
C1634  C1636   1.411   .     S
C1636  C1638   1.376   .     D
C1636  S2080   1.737   .     S
S1639  C1642   1.736   .     S
S1639  C1647   1.709   .     S
O1640  C1646   1.254   .     D
O1640  Zr1739  2.210   .     S
O1641  C1646   1.260   .     S
O1641  Zr1777  2.270   .     S
C1642  C1643   1.346   .     D
C1642  C1646   1.479   .     S
C1643  H1644   1.140   .     S
C1643  C1645   1.411   .     S
C1645  C1647   1.376   .     D
C1645  S2082   1.737   .     S
S1648  C1651   1.736   .     S
S1648  C1656   1.709   .     S
O1649  C1655   1.254   .     D
O1649  Zr1740  2.210   1_565 S
O1650  C1655   1.260   .     S
O1650  Zr1780  2.270   .     S
C1651  C1652   1.346   .     D
C1651  C1655   1.479   .     S
C1652  H1653   1.140   .     S
C1652  C1654   1.411   .     S
C1654  C1656   1.376   .     D
C1654  S2081   1.737   .     S
S1657  C1660   1.736   .     S
S1657  C1665   1.709   .     S
O1658  C1664   1.254   .     D
O1658  Zr1741  2.210   .     S
O1659  C1664   1.260   .     S
O1659  Zr2059  2.270   .     S
C1660  C1661   1.346   .     D
C1660  C1664   1.479   .     S
C1661  H1662   1.140   .     S
C1661  C1663   1.411   .     S
C1663  C1665   1.376   .     D
C1663  S2158   1.737   .     S
S1666  C1669   1.736   .     S
S1666  C1674   1.709   .     S
O1667  C1673   1.254   .     D
O1667  Zr1742  2.210   .     S
O1668  C1673   1.260   .     S
O1668  Zr1789  2.270   .     S
C1669  C1670   1.346   .     D
C1669  C1673   1.479   .     S
C1670  H1671   1.140   .     S
C1670  C1672   1.411   .     S
C1672  C1674   1.376   .     D
C1672  S2075   1.737   .     S
S1675  C1678   1.736   .     S
S1675  C1683   1.709   .     S
O1676  C1682   1.254   .     D
O1676  Zr1743  2.210   .     S
O1677  C1682   1.260   .     S
O1677  Zr1783  2.270   .     S
C1678  C1679   1.346   .     D
C1678  C1682   1.479   .     S
C1679  H1680   1.140   .     S
C1679  C1681   1.411   .     S
C1681  C1683   1.376   .     D
C1681  S2159   1.737   .     S
S1684  C1687   1.736   .     S
S1684  C1692   1.709   .     S
O1685  C1691   1.254   .     D
O1685  Zr1744  2.210   .     S
O1686  C1691   1.260   .     S
O1686  Zr1786  2.270   .     S
C1687  C1688   1.346   .     D
C1687  C1691   1.479   .     S
C1688  H1689   1.140   .     S
C1688  C1690   1.411   .     S
C1690  C1692   1.376   .     D
C1690  S2076   1.737   .     S
S1693  C1696   1.736   .     S
S1693  C1701   1.709   .     S
O1694  C1700   1.254   .     D
O1694  Zr1729  2.210   .     S
O1695  C1700   1.260   .     S
O1695  Zr1798  2.270   .     S
C1696  C1697   1.346   .     D
C1696  C1700   1.479   .     S
C1697  H1698   1.140   .     S
C1697  C1699   1.411   .     S
C1699  C1701   1.376   .     D
C1699  S2078   1.737   .     S
S1702  C1705   1.736   .     S
S1702  C1710   1.709   .     S
O1703  C1709   1.254   .     D
O1703  Zr1730  2.210   1_565 S
O1704  C1709   1.260   .     S
O1704  Zr2062  2.270   .     S
C1705  C1706   1.346   .     D
C1705  C1709   1.479   .     S
C1706  H1707   1.140   .     S
C1706  C1708   1.411   .     S
C1708  C1710   1.376   .     D
C1708  S2077   1.737   .     S
S1711  C1714   1.736   .     S
S1711  C1719   1.709   .     S
O1712  C1718   1.254   .     D
O1712  Zr1731  2.210   .     S
O1713  C1718   1.260   .     S
O1713  Zr1792  2.270   .     S
C1714  C1715   1.346   .     D
C1714  C1718   1.479   .     S
C1715  H1716   1.140   .     S
C1715  C1717   1.411   .     S
C1717  C1719   1.376   .     D
C1717  S2160   1.737   .     S
S1720  C1723   1.736   .     S
S1720  C1728   1.709   .     S
O1721  C1727   1.254   .     D
O1721  Zr1732  2.210   1_565 D
O1722  C1727   1.260   .     S
O1722  Zr1795  2.270   .     S
C1723  C1724   1.346   .     D
C1723  C1727   1.479   .     S
C1724  H1725   1.140   .     S
C1724  C1726   1.411   .     S
C1726  C1728   1.376   .     D
C1726  S2079   1.737   .     S
Zr1729 O2161   2.159   .     S
Zr1729 O2245   2.159   .     S
Zr1729 O2257   2.166   .     S
Zr1729 O2341   2.166   .     S
Zr1730 O2246   2.159   .     S
Zr1730 O2258   2.166   .     S
Zr1730 O2342   2.166   .     S
Zr1730 O11     2.210   1_545 S
Zr1730 O1703   2.210   1_545 S
Zr1730 O2162   2.159   1_545 S
Zr1731 O2163   2.159   .     S
Zr1731 O2247   2.159   .     S
Zr1731 O2259   2.166   .     S
Zr1731 O2343   2.166   .     S
Zr1732 O2248   2.159   .     S
Zr1732 O2260   2.166   .     S
Zr1732 O2344   2.166   .     S
Zr1732 O29     2.210   1_545 S
Zr1732 O1721   2.210   1_545 D
Zr1732 O2164   2.159   1_545 S
Zr1733 O2165   2.159   .     S
Zr1733 O2249   2.159   .     S
Zr1733 O2261   2.166   .     S
Zr1733 O2345   2.166   .     S
Zr1734 O2166   2.159   .     S
Zr1734 O2262   2.166   .     S
Zr1734 O2346   2.166   .     S
Zr1734 O803    2.210   1_545 D
Zr1734 O983    2.210   1_545 S
Zr1734 O2250   2.159   1_545 D
Zr1735 O2167   2.159   .     S
Zr1735 O2251   2.159   .     S
Zr1735 O2263   2.166   .     S
Zr1735 O2347   2.166   .     S
Zr1736 O2168   2.159   .     S
Zr1736 O2264   2.166   .     S
Zr1736 O2348   2.166   .     S
Zr1736 O821    2.210   1_545 S
Zr1736 O1001   2.210   1_545 D
Zr1736 O2252   2.159   1_545 S
Zr1737 O2169   2.159   .     S
Zr1737 O2253   2.159   .     S
Zr1737 O2265   2.166   .     S
Zr1737 O2349   2.166   .     S
Zr1738 O2254   2.159   .     S
Zr1738 O2266   2.166   .     S
Zr1738 O2350   2.166   .     S
Zr1738 O83     2.210   1_545 D
Zr1738 O1631   2.210   1_545 S
Zr1738 O2170   2.159   1_545 S
Zr1739 O2171   2.159   .     S
Zr1739 O2255   2.159   .     S
Zr1739 O2267   2.166   .     S
Zr1739 O2351   2.166   .     S
Zr1740 O2256   2.159   .     S
Zr1740 O2268   2.166   .     S
Zr1740 O2352   2.166   .     S
Zr1740 O101    2.210   1_545 S
Zr1740 O1649   2.210   1_545 S
Zr1740 O2172   2.159   1_545 D
Zr1741 O2173   2.159   .     S
Zr1741 O2241   2.159   .     S
Zr1741 O2269   2.166   .     S
Zr1741 O2337   2.166   .     S
Zr1742 O2174   2.159   .     S
Zr1742 O2270   2.166   .     S
Zr1742 O2338   2.166   .     S
Zr1742 O731    2.210   1_545 S
Zr1742 O911    2.210   1_545 S
Zr1742 O2242   2.159   1_545 S
Zr1743 O2175   2.159   .     S
Zr1743 O2243   2.159   .     S
Zr1743 O2271   2.166   .     S
Zr1743 O2339   2.166   .     S
Zr1744 O2176   2.159   .     S
Zr1744 O2272   2.166   .     S
Zr1744 O2340   2.166   .     S
Zr1744 O749    2.210   1_545 S
Zr1744 O929    2.210   1_545 S
Zr1744 O2244   2.159   1_545 S
Zr1745 O2177   2.159   .     S
Zr1745 O2225   2.159   .     S
Zr1745 O2273   2.166   .     S
Zr1745 O2321   2.166   .     S
Zr1746 O2226   2.159   .     S
Zr1746 O2274   2.166   .     S
Zr1746 O2322   2.166   .     S
Zr1746 O155    2.210   1_554 S
Zr1746 O1523   2.210   1_554 S
Zr1746 O2178   2.159   1_554 S
Zr1747 O2227   2.159   .     S
Zr1747 O2275   2.166   .     S
Zr1747 O2323   2.166   .     S
Zr1747 O164    2.210   1_554 S
Zr1747 O1532   2.210   1_554 D
Zr1747 O2179   2.159   1_554 S
Zr1748 O2180   2.159   .     S
Zr1748 O2228   2.159   .     S
Zr1748 O2276   2.166   .     S
Zr1748 O2324   2.166   .     S
Zr1749 O2181   2.159   .     S
Zr1749 O2237   2.159   .     S
Zr1749 O2277   2.166   .     S
Zr1749 O2333   2.166   .     S
Zr1750 O2182   2.159   .     S
Zr1750 O2278   2.166   .     S
Zr1750 O2334   2.166   .     S
Zr1750 O695    2.210   1_554 D
Zr1750 O1127   2.210   1_554 S
Zr1750 O2238   2.159   1_554 S
Zr1751 O2183   2.159   .     S
Zr1751 O2279   2.166   .     S
Zr1751 O2335   2.166   .     S
Zr1751 O704    2.210   1_554 S
Zr1751 O1136   2.210   1_554 D
Zr1751 O2239   2.159   1_554 S
Zr1752 O2184   2.159   .     S
Zr1752 O2240   2.159   .     S
Zr1752 O2280   2.166   .     S
Zr1752 O2336   2.166   .     S
Zr1753 O2185   2.159   .     S
Zr1753 O2233   2.159   .     S
Zr1753 O2281   2.166   .     S
Zr1753 O2329   2.166   .     S
Zr1754 O2234   2.159   .     S
Zr1754 O2282   2.166   .     S
Zr1754 O2330   2.166   .     S
Zr1754 O227    2.210   1_554 D
Zr1754 O1451   2.210   1_554 D
Zr1754 O2186   2.159   1_554 D
Zr1755 O2235   2.159   .     S
Zr1755 O2283   2.166   .     S
Zr1755 O2331   2.166   .     S
Zr1755 O236    2.210   1_554 S
Zr1755 O1460   2.210   1_554 S
Zr1755 O2187   2.159   1_554 S
Zr1756 O2188   2.159   .     S
Zr1756 O2236   2.159   .     S
Zr1756 O2284   2.166   .     S
Zr1756 O2332   2.166   .     S
Zr1757 O2189   2.159   .     S
Zr1757 O2229   2.159   .     S
Zr1757 O2285   2.166   .     S
Zr1757 O2325   2.166   .     S
Zr1758 O2190   2.159   .     S
Zr1758 O2286   2.166   .     S
Zr1758 O2326   2.166   .     S
Zr1758 O623    2.210   1_554 S
Zr1758 O1055   2.210   1_554 S
Zr1758 O2230   2.159   1_554 S
Zr1759 O2191   2.159   .     S
Zr1759 O2287   2.166   .     S
Zr1759 O2327   2.166   .     S
Zr1759 O632    2.210   1_554 S
Zr1759 O1064   2.210   1_554 S
Zr1759 O2231   2.159   1_554 D
Zr1760 O2192   2.159   .     S
Zr1760 O2232   2.159   .     S
Zr1760 O2288   2.166   .     S
Zr1760 O2328   2.166   .     S
Zr1761 O2193   2.159   .     S
Zr1761 O2221   2.159   .     S
Zr1761 O2289   2.166   .     S
Zr1761 O2317   2.166   .     S
Zr1762 O2194   2.159   .     S
Zr1762 O2222   2.159   .     S
Zr1762 O2290   2.166   .     S
Zr1762 O2318   2.166   .     S
Zr1763 O2223   2.159   .     S
Zr1763 O2291   2.166   .     S
Zr1763 O2319   2.166   .     S
Zr1763 O308    2.210   1_455 S
Zr1763 O1352   2.210   1_455 S
Zr1763 O2195   2.159   1_455 S
Zr1764 O2224   2.159   .     S
Zr1764 O2292   2.166   .     S
Zr1764 O2320   2.166   .     S
Zr1764 O317    2.210   1_455 S
Zr1764 O1361   2.210   1_455 S
Zr1764 O2196   2.159   1_455 S
Zr1765 O2197   2.159   .     S
Zr1765 O2209   2.159   .     S
Zr1765 O2293   2.166   .     S
Zr1765 O2305   2.166   .     S
Zr1766 O2198   2.159   .     S
Zr1766 O2210   2.159   .     S
Zr1766 O2294   2.166   .     S
Zr1766 O2306   2.166   .     S
Zr1767 O2199   2.159   .     S
Zr1767 O2295   2.166   .     S
Zr1767 O2307   2.166   .     S
Zr1767 O452    2.210   1_455 S
Zr1767 O1280   2.210   1_455 S
Zr1767 O2211   2.159   1_455 D
Zr1768 O2200   2.159   .     S
Zr1768 O2296   2.166   .     S
Zr1768 O2308   2.166   .     S
Zr1768 O461    2.210   1_455 S
Zr1768 O1289   2.210   1_455 D
Zr1768 O2212   2.159   1_455 S
Zr1769 O2201   2.159   .     S
Zr1769 O2213   2.159   .     S
Zr1769 O2297   2.166   .     S
Zr1769 O2309   2.166   .     S
Zr1770 O2202   2.159   .     S
Zr1770 O2214   2.159   .     S
Zr1770 O2298   2.166   .     S
Zr1770 O2310   2.166   .     S
Zr1771 O2215   2.159   .     S
Zr1771 O2299   2.166   .     S
Zr1771 O2311   2.166   .     S
Zr1771 O380    2.210   1_455 D
Zr1771 O1424   2.210   1_455 S
Zr1771 O2203   2.159   1_455 S
Zr1772 O2216   2.159   .     S
Zr1772 O2300   2.166   .     S
Zr1772 O2312   2.166   .     S
Zr1772 O389    2.210   1_455 S
Zr1772 O1433   2.210   1_455 S
Zr1772 O2204   2.159   1_455 S
Zr1773 O2205   2.159   .     S
Zr1773 O2217   2.159   .     S
Zr1773 O2301   2.166   .     S
Zr1773 O2313   2.166   .     S
Zr1774 O2206   2.159   .     S
Zr1774 O2218   2.159   .     S
Zr1774 O2302   2.166   .     S
Zr1774 O2314   2.166   .     S
Zr1775 O2207   2.159   .     S
Zr1775 O2303   2.166   .     S
Zr1775 O2315   2.166   .     S
Zr1775 O524    2.210   1_455 S
Zr1775 O1208   2.210   1_455 S
Zr1775 O2219   2.159   1_455 S
Zr1776 O2208   2.159   .     S
Zr1776 O2304   2.166   .     S
Zr1776 O2316   2.166   .     S
Zr1776 O533    2.210   1_455 D
Zr1776 O1217   2.210   1_455 S
Zr1776 O2220   2.159   1_455 S
Zr1777 O1778   2.173   .     S
Zr1777 O1779   2.176   .     S
Zr1777 O2161   2.129   .     S
Zr1777 O2171   2.129   .     S
Zr1777 O2267   2.141   .     S
Zr1777 O2341   2.141   .     S
O1778  H2353   1.110   .     S
O1779  H2354   1.110   .     S
Zr1780 O1781   2.173   .     S
Zr1780 O1782   2.176   .     S
Zr1780 O2162   2.129   .     S
Zr1780 O2172   2.129   .     S
Zr1780 O2268   2.141   1_565 D
Zr1780 O2342   2.141   1_565 S
O1781  H2355   1.110   .     S
O1782  H2356   1.110   .     S
Zr1783 O1784   2.173   .     S
Zr1783 O1785   2.176   .     S
Zr1783 O2165   2.129   .     S
Zr1783 O2175   2.129   .     S
Zr1783 O2271   2.141   .     S
Zr1783 O2345   2.141   .     S
O1784  H2357   1.110   .     S
O1785  H2358   1.110   .     S
Zr1786 O1787   2.173   .     S
Zr1786 O1788   2.176   .     S
Zr1786 O2166   2.129   .     S
Zr1786 O2176   2.129   .     S
Zr1786 O2272   2.141   .     S
Zr1786 O2346   2.141   .     S
O1787  H2359   1.110   .     S
O1788  H2360   1.110   .     S
Zr1789 O1790   2.173   .     S
Zr1789 O1791   2.176   .     S
Zr1789 O2174   2.129   .     S
Zr1789 O2168   2.129   .     S
Zr1789 O2348   2.141   .     S
Zr1789 O2270   2.141   .     S
O1790  H2361   1.110   .     S
O1791  H2362   1.110   .     S
Zr1792 O1793   2.173   .     S
Zr1792 O1794   2.176   .     S
Zr1792 O2169   2.129   .     S
Zr1792 O2163   2.129   .     S
Zr1792 O2259   2.141   .     S
Zr1792 O2349   2.141   .     S
O1793  H2363   1.110   .     S
O1794  H2364   1.110   .     S
Zr1795 O1796   2.173   .     S
Zr1795 O1797   2.176   .     S
Zr1795 O2170   2.129   .     S
Zr1795 O2164   2.129   .     S
Zr1795 O2260   2.141   1_565 S
Zr1795 O2350   2.141   1_565 S
O1796  H2365   1.110   .     S
O1797  H2366   1.110   .     S
Zr1798 O1799   2.173   .     S
Zr1798 O1800   2.176   .     S
Zr1798 O2161   2.129   .     S
Zr1798 O2171   2.129   .     S
Zr1798 O2351   2.141   .     S
Zr1798 O2257   2.141   .     S
O1799  H2367   1.110   .     S
O1800  H2368   1.110   .     S
Zr1801 O1802   2.173   .     S
Zr1801 O1803   2.176   .     S
Zr1801 O2173   2.129   .     S
Zr1801 O2167   2.129   .     S
Zr1801 O2263   2.141   .     S
Zr1801 O2337   2.141   .     S
O1802  H2369   1.110   .     S
O1803  H2370   1.110   .     S
Zr1804 O1805   2.173   .     S
Zr1804 O1806   2.176   .     S
Zr1804 O2174   2.129   .     S
Zr1804 O2168   2.129   .     S
Zr1804 O2264   2.141   .     S
Zr1804 O2338   2.141   .     S
O1805  H2371   1.110   .     S
O1806  H2372   1.110   .     S
Zr1807 O1808   2.173   .     S
Zr1807 O1809   2.176   .     S
Zr1807 O2177   2.129   .     S
Zr1807 O2188   2.129   .     S
Zr1807 O2284   2.141   .     S
Zr1807 O2321   2.141   .     S
O1808  H2373   1.110   .     S
O1809  H2374   1.110   .     S
Zr1810 O1811   2.173   .     S
Zr1810 O1812   2.176   .     S
Zr1810 O2178   2.129   .     S
Zr1810 O2187   2.129   .     S
Zr1810 O2283   2.141   1_556 D
Zr1810 O2322   2.141   1_556 S
O1811  H2375   1.110   .     S
O1812  H2376   1.110   .     S
Zr1813 O1814   2.173   .     S
Zr1813 O1815   2.176   .     S
Zr1813 O2181   2.129   .     S
Zr1813 O2192   2.129   .     S
Zr1813 O2288   2.141   .     S
Zr1813 O2333   2.141   .     S
O1814  H2377   1.110   .     S
O1815  H2378   1.110   .     S
Zr1816 O1817   2.173   .     S
Zr1816 O1818   2.176   .     S
Zr1816 O2182   2.129   .     S
Zr1816 O2191   2.129   .     S
Zr1816 O2287   2.141   .     S
Zr1816 O2334   2.141   .     S
O1817  H2379   1.110   .     S
O1818  H2380   1.110   .     S
Zr1819 O1820   2.173   .     S
Zr1819 O1821   2.176   .     S
Zr1819 O2185   2.129   .     S
Zr1819 O2180   2.129   .     S
Zr1819 O2276   2.141   .     S
Zr1819 O2329   2.141   .     S
O1820  H2381   1.110   .     S
O1821  H2382   1.110   .     S
Zr1822 O1823   2.173   .     S
Zr1822 O1824   2.176   .     S
Zr1822 O2186   2.129   .     S
Zr1822 O2179   2.129   .     S
Zr1822 O2275   2.141   1_556 S
Zr1822 O2330   2.141   1_556 S
O1823  H2383   1.110   .     S
O1824  H2384   1.110   .     S
Zr1825 O1826   2.173   .     S
Zr1825 O1827   2.176   .     S
Zr1825 O2177   2.129   .     S
Zr1825 O2188   2.129   .     S
Zr1825 O2332   2.141   .     S
Zr1825 O2273   2.141   .     S
O1826  H2385   1.110   .     S
O1827  H2386   1.110   .     S
Zr1828 O1829   2.173   .     S
Zr1828 O1830   2.176   .     S
Zr1828 O2189   2.129   .     S
Zr1828 O2184   2.129   .     S
Zr1828 O2280   2.141   .     S
Zr1828 O2325   2.141   .     S
O1829  H2387   1.110   .     S
O1830  H2388   1.110   .     S
Zr1831 O1832   2.173   .     S
Zr1831 O1833   2.176   .     S
Zr1831 O2190   2.129   .     S
Zr1831 O2183   2.129   .     S
Zr1831 O2279   2.141   .     S
Zr1831 O2326   2.141   .     S
O1832  H2389   1.110   .     S
O1833  H2390   1.110   .     S
Zr1834 O1835   2.173   .     S
Zr1834 O1836   2.176   .     S
Zr1834 O2182   2.129   .     S
Zr1834 O2191   2.129   .     S
Zr1834 O2327   2.141   .     S
Zr1834 O2278   2.141   .     S
O1835  H2391   1.110   .     S
O1836  H2392   1.110   .     S
Zr1837 O1838   2.173   .     S
Zr1837 O1839   2.176   .     S
Zr1837 O2193   2.129   .     S
Zr1837 O2202   2.129   .     S
Zr1837 O2298   2.141   .     S
Zr1837 O2317   2.141   .     S
O1838  H2393   1.110   .     S
O1839  H2394   1.110   .     S
Zr1840 O1841   2.173   .     S
Zr1840 O1842   2.176   .     S
Zr1840 O2195   2.129   .     S
Zr1840 O2204   2.129   .     S
Zr1840 O2300   2.141   1_655 S
Zr1840 O2319   2.141   1_655 D
O1841  H2395   1.110   .     S
O1842  H2396   1.110   .     S
Zr1843 O1844   2.173   .     S
Zr1843 O1845   2.176   .     S
Zr1843 O2197   2.129   .     S
Zr1843 O2206   2.129   .     S
Zr1843 O2302   2.141   .     S
Zr1843 O2305   2.141   .     S
O1844  H2397   1.110   .     S
O1845  H2398   1.110   .     S
Zr1846 O1847   2.173   .     S
Zr1846 O1848   2.176   .     S
Zr1846 O2199   2.129   .     S
Zr1846 O2208   2.129   .     S
Zr1846 O2304   2.141   .     S
Zr1846 O2307   2.141   .     S
O1847  H2399   1.110   .     S
O1848  H2400   1.110   .     S
Zr1849 O1850   2.173   .     S
Zr1849 O1851   2.176   .     S
Zr1849 O2201   2.129   .     S
Zr1849 O2194   2.129   .     S
Zr1849 O2290   2.141   .     S
Zr1849 O2309   2.141   .     S
O1850  H2401   1.110   .     S
O1851  H2402   1.110   .     S
Zr1852 O1853   2.173   .     S
Zr1852 O1854   2.176   .     S
Zr1852 O2193   2.129   .     S
Zr1852 O2202   2.129   .     S
Zr1852 O2310   2.141   .     S
Zr1852 O2289   2.141   .     S
O1853  H2403   1.110   .     S
O1854  H2404   1.110   .     S
Zr1855 O1856   2.173   .     S
Zr1855 O1857   2.176   .     S
Zr1855 O2203   2.129   .     S
Zr1855 O2196   2.129   .     S
Zr1855 O2292   2.141   1_655 S
Zr1855 O2311   2.141   1_655 S
O1856  H2405   1.110   .     S
O1857  H2406   1.110   .     S
Zr1858 O1859   2.173   .     S
Zr1858 O1860   2.176   .     S
Zr1858 O2205   2.129   .     S
Zr1858 O2198   2.129   .     S
Zr1858 O2294   2.141   .     S
Zr1858 O2313   2.141   .     S
O1859  H2407   1.110   .     S
O1860  H2408   1.110   .     S
Zr1861 O1862   2.173   .     S
Zr1861 O1863   2.176   .     S
Zr1861 O2207   2.129   .     S
Zr1861 O2200   2.129   .     S
Zr1861 O2296   2.141   .     S
Zr1861 O2315   2.141   .     S
O1862  H2409   1.110   .     S
O1863  H2410   1.110   .     S
Zr1864 O1865   2.173   .     S
Zr1864 O1866   2.176   .     S
Zr1864 O2199   2.129   .     S
Zr1864 O2208   2.129   .     S
Zr1864 O2316   2.141   .     S
Zr1864 O2295   2.141   .     S
O1865  H2411   1.110   .     S
O1866  H2412   1.110   .     S
Zr1867 O1868   2.173   .     S
Zr1867 O1869   2.176   .     S
Zr1867 O2209   2.129   .     S
Zr1867 O2218   2.129   .     S
Zr1867 O2314   2.141   .     S
Zr1867 O2293   2.141   .     S
O1868  H2413   1.110   .     S
O1869  H2414   1.110   .     S
Zr1870 O1871   2.173   .     S
Zr1870 O1872   2.176   .     S
Zr1870 O2211   2.129   .     S
Zr1870 O2220   2.129   .     S
Zr1870 O2316   2.141   1_655 S
Zr1870 O2295   2.141   1_655 D
O1871  H2415   1.110   .     S
O1872  H2416   1.110   .     S
Zr1873 O1874   2.173   .     S
Zr1873 O1875   2.176   .     S
Zr1873 O2213   2.129   .     S
Zr1873 O2222   2.129   .     S
Zr1873 O2318   2.141   .     S
Zr1873 O2297   2.141   .     S
O1874  H2417   1.110   .     S
O1875  H2418   1.110   .     S
Zr1876 O1877   2.173   .     S
Zr1876 O1878   2.176   .     S
Zr1876 O2221   2.129   .     S
Zr1876 O2214   2.129   .     S
Zr1876 O2298   2.141   .     S
Zr1876 O2317   2.141   .     S
O1877  H2419   1.110   .     S
O1878  H2420   1.110   .     S
Zr1879 O1880   2.173   .     S
Zr1879 O1881   2.176   .     S
Zr1879 O2215   2.129   .     S
Zr1879 O2224   2.129   .     S
Zr1879 O2320   2.141   .     S
Zr1879 O2299   2.141   .     S
O1880  H2421   1.110   .     S
O1881  H2422   1.110   .     S
Zr1882 O1883   2.173   .     S
Zr1882 O1884   2.176   .     S
Zr1882 O2217   2.129   .     S
Zr1882 O2210   2.129   .     S
Zr1882 O2306   2.141   .     S
Zr1882 O2301   2.141   .     S
O1883  H2423   1.110   .     S
O1884  H2424   1.110   .     S
Zr1885 O1886   2.173   .     S
Zr1885 O1887   2.176   .     S
Zr1885 O2219   2.129   .     S
Zr1885 O2212   2.129   .     S
Zr1885 O2308   2.141   1_655 S
Zr1885 O2303   2.141   1_655 S
O1886  H2425   1.110   .     S
O1887  H2426   1.110   .     S
Zr1888 O1889   2.173   .     S
Zr1888 O1890   2.176   .     S
Zr1888 O2211   2.129   .     S
Zr1888 O2220   2.129   .     S
Zr1888 O2304   2.141   1_655 S
Zr1888 O2307   2.141   1_655 D
O1889  H2427   1.110   .     S
O1890  H2428   1.110   .     S
Zr1891 O1892   2.173   .     S
Zr1891 O1893   2.176   .     S
Zr1891 O2221   2.129   .     S
Zr1891 O2214   2.129   .     S
Zr1891 O2310   2.141   .     S
Zr1891 O2289   2.141   .     S
O1892  H2429   1.110   .     S
O1893  H2430   1.110   .     S
Zr1894 O1895   2.173   .     S
Zr1894 O1896   2.176   .     S
Zr1894 O2223   2.129   .     S
Zr1894 O2216   2.129   .     S
Zr1894 O2312   2.141   .     S
Zr1894 O2291   2.141   .     S
O1895  H2431   1.110   .     S
O1896  H2432   1.110   .     S
Zr1897 O1898   2.173   .     S
Zr1897 O1899   2.176   .     S
Zr1897 O2225   2.129   .     S
Zr1897 O2236   2.129   .     S
Zr1897 O2332   2.141   .     S
Zr1897 O2273   2.141   .     S
O1898  H2433   1.110   .     S
O1899  H2434   1.110   .     S
Zr1900 O1901   2.173   .     S
Zr1900 O1902   2.176   .     S
Zr1900 O2226   2.129   .     S
Zr1900 O2235   2.129   .     S
Zr1900 O2331   2.141   .     S
Zr1900 O2274   2.141   .     S
O1901  H2435   1.110   .     S
O1902  H2436   1.110   .     S
Zr1903 O1904   2.173   .     S
Zr1903 O1905   2.176   .     S
Zr1903 O2229   2.129   .     S
Zr1903 O2240   2.129   .     S
Zr1903 O2336   2.141   .     S
Zr1903 O2285   2.141   .     S
O1904  H2437   1.110   .     S
O1905  H2438   1.110   .     S
Zr1906 O1907   2.173   .     S
Zr1906 O1908   2.176   .     S
Zr1906 O2230   2.129   .     S
Zr1906 O2239   2.129   .     S
Zr1906 O2335   2.141   1_556 S
Zr1906 O2286   2.141   1_556 S
O1907  H2439   1.110   .     S
O1908  H2440   1.110   .     S
Zr1909 O1910   2.173   .     S
Zr1909 O1911   2.176   .     S
Zr1909 O2238   2.129   .     S
Zr1909 O2231   2.129   .     S
Zr1909 O2287   2.141   1_556 S
Zr1909 O2334   2.141   1_556 S
O1910  H2441   1.110   .     S
O1911  H2442   1.110   .     S
Zr1912 O1913   2.173   .     S
Zr1912 O1914   2.176   .     S
Zr1912 O2233   2.129   .     S
Zr1912 O2228   2.129   .     S
Zr1912 O2324   2.141   .     S
Zr1912 O2281   2.141   .     S
O1913  H2443   1.110   .     S
O1914  H2444   1.110   .     S
Zr1915 O1916   2.173   .     S
Zr1915 O1917   2.176   .     S
Zr1915 O2234   2.129   .     S
Zr1915 O2227   2.129   .     S
Zr1915 O2323   2.141   .     S
Zr1915 O2282   2.141   .     S
O1916  H2445   1.110   .     S
O1917  H2446   1.110   .     S
Zr1918 O1919   2.173   .     S
Zr1918 O1920   2.176   .     S
Zr1918 O2225   2.129   .     S
Zr1918 O2236   2.129   .     S
Zr1918 O2284   2.141   .     S
Zr1918 O2321   2.141   .     S
O1919  H2447   1.110   .     S
O1920  H2448   1.110   .     S
Zr1921 O1922   2.173   .     S
Zr1921 O1923   2.176   .     S
Zr1921 O2237   2.129   .     S
Zr1921 O2232   2.129   .     S
Zr1921 O2328   2.141   .     S
Zr1921 O2277   2.141   .     S
O1922  H2449   1.110   .     S
O1923  H2450   1.110   .     S
Zr1924 O1925   2.173   .     S
Zr1924 O1926   2.176   .     S
Zr1924 O2238   2.129   .     S
Zr1924 O2231   2.129   .     S
Zr1924 O2327   2.141   1_556 D
Zr1924 O2278   2.141   1_556 S
O1925  H2451   1.110   .     S
O1926  H2452   1.110   .     S
Zr1927 O1928   2.173   .     S
Zr1927 O1929   2.176   .     S
Zr1927 O2241   2.129   .     S
Zr1927 O2251   2.129   .     S
Zr1927 O2347   2.141   .     S
Zr1927 O2269   2.141   .     S
O1928  H2453   1.110   .     S
O1929  H2454   1.110   .     S
Zr1930 O1931   2.173   .     S
Zr1930 O1932   2.176   .     S
Zr1930 O2242   2.129   .     S
Zr1930 O2252   2.129   .     S
Zr1930 O2348   2.141   1_565 S
Zr1930 O2270   2.141   1_565 D
O1931  H2455   1.110   .     S
O1932  H2456   1.110   .     S
Zr1933 O1934   2.173   .     S
Zr1933 O1935   2.176   .     S
Zr1933 O2245   2.129   .     S
Zr1933 O2255   2.129   .     S
Zr1933 O2351   2.141   .     S
Zr1933 O2257   2.141   .     S
O1934  H2457   1.110   .     S
O1935  H2458   1.110   .     S
Zr1936 O1937   2.173   .     S
Zr1936 O1938   2.176   .     S
Zr1936 O2246   2.129   .     S
Zr1936 O2256   2.129   .     S
Zr1936 O2352   2.141   .     S
Zr1936 O2258   2.141   .     S
O1937  H2459   1.110   .     S
O1938  H2460   1.110   .     S
Zr1939 O1940   2.173   .     S
Zr1939 O1941   2.176   .     S
Zr1939 O2249   2.129   .     S
Zr1939 O2243   2.129   .     S
Zr1939 O2339   2.141   .     S
Zr1939 O2261   2.141   .     S
O1940  H2461   1.110   .     S
O1941  H2462   1.110   .     S
Zr1942 O1943   2.173   .     S
Zr1942 O1944   2.176   .     S
Zr1942 O2250   2.129   .     S
Zr1942 O2244   2.129   .     S
Zr1942 O2340   2.141   1_565 S
Zr1942 O2262   2.141   1_565 S
O1943  H2463   1.110   .     S
O1944  H2464   1.110   .     S
Zr1945 O1946   2.173   .     S
Zr1945 O1947   2.176   .     S
Zr1945 O2242   2.129   .     S
Zr1945 O2252   2.129   .     S
Zr1945 O2264   2.141   1_565 S
Zr1945 O2338   2.141   1_565 D
O1946  H2465   1.110   .     S
O1947  H2466   1.110   .     S
Zr1948 O1949   2.173   .     S
Zr1948 O1950   2.176   .     S
Zr1948 O2253   2.129   .     S
Zr1948 O2247   2.129   .     S
Zr1948 O2343   2.141   .     S
Zr1948 O2265   2.141   .     S
O1949  H2467   1.110   .     S
O1950  H2468   1.110   .     S
Zr1951 O1952   2.173   .     S
Zr1951 O1953   2.176   .     S
Zr1951 O2254   2.129   .     S
Zr1951 O2248   2.129   .     S
Zr1951 O2344   2.141   .     S
Zr1951 O2266   2.141   .     S
O1952  H2469   1.110   .     S
O1953  H2470   1.110   .     S
Zr1954 O1955   2.173   .     S
Zr1954 O1956   2.176   .     S
Zr1954 O2245   2.129   .     S
Zr1954 O2255   2.129   .     S
Zr1954 O2267   2.141   .     S
Zr1954 O2341   2.141   .     S
O1955  H2471   1.110   .     S
O1956  H2472   1.110   .     S
Zr1957 O1958   2.173   .     S
Zr1957 O1959   2.176   .     S
Zr1957 O2253   2.129   .     S
Zr1957 O2247   2.129   .     S
Zr1957 O2259   2.141   .     S
Zr1957 O2349   2.141   .     S
O1958  H2473   1.110   .     S
O1959  H2474   1.110   .     S
Zr1960 O1961   2.173   .     S
Zr1960 O1962   2.176   .     S
Zr1960 O2254   2.129   .     S
Zr1960 O2248   2.129   .     S
Zr1960 O2260   2.141   .     S
Zr1960 O2350   2.141   .     S
O1961  H2475   1.110   .     S
O1962  H2476   1.110   .     S
Zr1963 O1964   2.173   .     S
Zr1963 O1965   2.176   .     S
Zr1963 O2241   2.129   .     S
Zr1963 O2251   2.129   .     S
Zr1963 O2263   2.141   .     S
Zr1963 O2337   2.141   .     S
O1964  H2477   1.110   .     S
O1965  H2478   1.110   .     S
Zr1966 O1967   2.173   .     S
Zr1966 O1968   2.176   .     S
Zr1966 O2246   2.129   .     S
Zr1966 O2256   2.129   .     S
Zr1966 O2268   2.141   .     S
Zr1966 O2342   2.141   .     S
O1967  H2479   1.110   .     S
O1968  H2480   1.110   .     S
Zr1969 O1970   2.173   .     S
Zr1969 O1971   2.176   .     S
Zr1969 O2249   2.129   .     S
Zr1969 O2243   2.129   .     S
Zr1969 O2271   2.141   .     S
Zr1969 O2345   2.141   .     S
O1970  H2481   1.110   .     S
O1971  H2482   1.110   .     S
Zr1972 O1973   2.173   .     S
Zr1972 O1974   2.176   .     S
Zr1972 O2250   2.129   .     S
Zr1972 O2244   2.129   .     S
Zr1972 O2272   2.141   1_565 S
Zr1972 O2346   2.141   1_565 S
O1973  H2483   1.110   .     S
O1974  H2484   1.110   .     S
Zr1975 O1976   2.173   .     S
Zr1975 O1977   2.176   .     S
Zr1975 O2233   2.129   .     S
Zr1975 O2228   2.129   .     S
Zr1975 O2276   2.141   .     S
Zr1975 O2329   2.141   .     S
O1976  H2485   1.110   .     S
O1977  H2486   1.110   .     S
Zr1978 O1979   2.173   .     S
Zr1978 O1980   2.176   .     S
Zr1978 O2234   2.129   .     S
Zr1978 O2227   2.129   .     S
Zr1978 O2275   2.141   .     S
Zr1978 O2330   2.141   .     S
O1979  H2487   1.110   .     S
O1980  H2488   1.110   .     S
Zr1981 O1982   2.173   .     S
Zr1981 O1983   2.176   .     S
Zr1981 O2229   2.129   .     S
Zr1981 O2240   2.129   .     S
Zr1981 O2280   2.141   .     S
Zr1981 O2325   2.141   .     S
O1982  H2489   1.110   .     S
O1983  H2490   1.110   .     S
Zr1984 O1985   2.173   .     S
Zr1984 O1986   2.176   .     S
Zr1984 O2230   2.129   .     S
Zr1984 O2239   2.129   .     S
Zr1984 O2279   2.141   1_556 S
Zr1984 O2326   2.141   1_556 S
O1985  H2491   1.110   .     S
O1986  H2492   1.110   .     S
Zr1987 O1988   2.173   .     S
Zr1987 O1989   2.176   .     S
Zr1987 O2226   2.129   .     S
Zr1987 O2235   2.129   .     S
Zr1987 O2283   2.141   .     S
Zr1987 O2322   2.141   .     S
O1988  H2493   1.110   .     S
O1989  H2494   1.110   .     S
Zr1990 O1991   2.173   .     S
Zr1990 O1992   2.176   .     S
Zr1990 O2237   2.129   .     S
Zr1990 O2232   2.129   .     S
Zr1990 O2288   2.141   .     S
Zr1990 O2333   2.141   .     S
O1991  H2495   1.110   .     S
O1992  H2496   1.110   .     S
Zr1993 O1994   2.173   .     S
Zr1993 O1995   2.176   .     S
Zr1993 O2213   2.129   .     S
Zr1993 O2222   2.129   .     S
Zr1993 O2290   2.141   .     S
Zr1993 O2309   2.141   .     S
O1994  H2497   1.110   .     S
O1995  H2498   1.110   .     S
Zr1996 O1997   2.173   .     S
Zr1996 O1998   2.176   .     S
Zr1996 O2215   2.129   .     S
Zr1996 O2224   2.129   .     S
Zr1996 O2292   2.141   .     S
Zr1996 O2311   2.141   .     S
O1997  H2499   1.110   .     S
O1998  H2500   1.110   .     S
Zr1999 O2000   2.173   .     S
Zr1999 O2001   2.176   .     S
Zr1999 O2217   2.129   .     S
Zr1999 O2210   2.129   .     S
Zr1999 O2294   2.141   .     S
Zr1999 O2313   2.141   .     S
O2000  H2501   1.110   .     S
O2001  H2502   1.110   .     S
Zr2002 O2003   2.173   .     S
Zr2002 O2004   2.176   .     S
Zr2002 O2219   2.129   .     S
Zr2002 O2212   2.129   .     S
Zr2002 O2296   2.141   1_655 D
Zr2002 O2315   2.141   1_655 S
O2003  H2503   1.110   .     S
O2004  H2504   1.110   .     S
Zr2005 O2006   2.173   .     S
Zr2005 O2007   2.176   .     S
Zr2005 O2223   2.129   .     S
Zr2005 O2216   2.129   .     S
Zr2005 O2300   2.141   .     S
Zr2005 O2319   2.141   .     S
O2006  H2505   1.110   .     S
O2007  H2506   1.110   .     S
Zr2008 O2009   2.173   .     S
Zr2008 O2010   2.176   .     S
Zr2008 O2209   2.129   .     S
Zr2008 O2218   2.129   .     S
Zr2008 O2302   2.141   .     S
Zr2008 O2305   2.141   .     S
O2009  H2507   1.110   .     S
O2010  H2508   1.110   .     S
Zr2011 O2012   2.173   .     S
Zr2011 O2013   2.176   .     S
Zr2011 O2205   2.129   .     S
Zr2011 O2198   2.129   .     S
Zr2011 O2306   2.141   .     S
Zr2011 O2301   2.141   .     S
O2012  H2509   1.110   .     S
O2013  H2510   1.110   .     S
Zr2014 O2015   2.173   .     S
Zr2014 O2016   2.176   .     S
Zr2014 O2207   2.129   .     S
Zr2014 O2200   2.129   .     S
Zr2014 O2308   2.141   .     S
Zr2014 O2303   2.141   .     S
O2015  H2511   1.110   .     S
O2016  H2512   1.110   .     S
Zr2017 O2018   2.173   .     S
Zr2017 O2019   2.176   .     S
Zr2017 O2195   2.129   .     S
Zr2017 O2204   2.129   .     S
Zr2017 O2312   2.141   1_655 S
Zr2017 O2291   2.141   1_655 S
O2018  H2513   1.110   .     S
O2019  H2514   1.110   .     S
Zr2020 O2021   2.173   .     S
Zr2020 O2022   2.176   .     S
Zr2020 O2197   2.129   .     S
Zr2020 O2206   2.129   .     S
Zr2020 O2314   2.141   .     S
Zr2020 O2293   2.141   .     S
O2021  H2515   1.110   .     S
O2022  H2516   1.110   .     S
Zr2023 O2024   2.173   .     S
Zr2023 O2025   2.176   .     S
Zr2023 O2201   2.129   .     S
Zr2023 O2194   2.129   .     S
Zr2023 O2318   2.141   .     S
Zr2023 O2297   2.141   .     S
O2024  H2517   1.110   .     S
O2025  H2518   1.110   .     S
Zr2026 O2027   2.173   .     S
Zr2026 O2028   2.176   .     S
Zr2026 O2203   2.129   .     S
Zr2026 O2196   2.129   .     S
Zr2026 O2320   2.141   1_655 D
Zr2026 O2299   2.141   1_655 S
O2027  H2519   1.110   .     S
O2028  H2520   1.110   .     S
Zr2029 O2030   2.173   .     S
Zr2029 O2031   2.176   .     S
Zr2029 O2185   2.129   .     S
Zr2029 O2180   2.129   .     S
Zr2029 O2324   2.141   .     S
Zr2029 O2281   2.141   .     S
O2030  H2521   1.110   .     S
O2031  H2522   1.110   .     S
Zr2032 O2033   2.173   .     S
Zr2032 O2034   2.176   .     S
Zr2032 O2186   2.129   .     S
Zr2032 O2179   2.129   .     S
Zr2032 O2323   2.141   1_556 S
Zr2032 O2282   2.141   1_556 S
O2033  H2523   1.110   .     S
O2034  H2524   1.110   .     S
Zr2035 O2036   2.173   .     S
Zr2035 O2037   2.176   .     S
Zr2035 O2181   2.129   .     S
Zr2035 O2192   2.129   .     S
Zr2035 O2328   2.141   .     S
Zr2035 O2277   2.141   .     S
O2036  H2525   1.110   .     S
O2037  H2526   1.110   .     S
Zr2038 O2039   2.173   .     S
Zr2038 O2040   2.176   .     S
Zr2038 O2178   2.129   .     S
Zr2038 O2187   2.129   .     S
Zr2038 O2331   2.141   1_556 D
Zr2038 O2274   2.141   1_556 S
O2039  H2527   1.110   .     S
O2040  H2528   1.110   .     S
Zr2041 O2042   2.173   .     S
Zr2041 O2043   2.176   .     S
Zr2041 O2189   2.129   .     S
Zr2041 O2184   2.129   .     S
Zr2041 O2336   2.141   .     S
Zr2041 O2285   2.141   .     S
O2042  H2529   1.110   .     S
O2043  H2530   1.110   .     S
Zr2044 O2045   2.173   .     S
Zr2044 O2046   2.176   .     S
Zr2044 O2190   2.129   .     S
Zr2044 O2183   2.129   .     S
Zr2044 O2335   2.141   .     S
Zr2044 O2286   2.141   .     S
O2045  H2531   1.110   .     S
O2046  H2532   1.110   .     S
Zr2047 O2048   2.173   .     S
Zr2047 O2049   2.176   .     S
Zr2047 O2165   2.129   .     S
Zr2047 O2175   2.129   .     S
Zr2047 O2339   2.141   .     S
Zr2047 O2261   2.141   .     S
O2048  H2533   1.110   .     S
O2049  H2534   1.110   .     S
Zr2050 O2051   2.173   .     S
Zr2050 O2052   2.176   .     S
Zr2050 O2166   2.129   .     S
Zr2050 O2176   2.129   .     S
Zr2050 O2340   2.141   .     S
Zr2050 O2262   2.141   .     S
O2051  H2535   1.110   .     S
O2052  H2536   1.110   .     S
Zr2053 O2054   2.173   .     S
Zr2053 O2055   2.176   .     S
Zr2053 O2169   2.129   .     S
Zr2053 O2163   2.129   .     S
Zr2053 O2343   2.141   .     S
Zr2053 O2265   2.141   .     S
O2054  H2537   1.110   .     S
O2055  H2538   1.110   .     S
Zr2056 O2057   2.173   .     S
Zr2056 O2058   2.176   .     S
Zr2056 O2170   2.129   .     S
Zr2056 O2164   2.129   .     S
Zr2056 O2344   2.141   1_565 S
Zr2056 O2266   2.141   1_565 S
O2057  H2539   1.110   .     S
O2058  H2540   1.110   .     S
Zr2059 O2060   2.173   .     S
Zr2059 O2061   2.176   .     S
Zr2059 O2173   2.129   .     S
Zr2059 O2167   2.129   .     S
Zr2059 O2347   2.141   .     S
Zr2059 O2269   2.141   .     S
O2060  H2541   1.110   .     S
O2061  H2542   1.110   .     S
Zr2062 O2063   2.173   .     S
Zr2062 O2064   2.176   .     S
Zr2062 O2162   2.129   .     S
Zr2062 O2172   2.129   .     S
Zr2062 O2352   2.141   1_565 S
Zr2062 O2258   2.141   1_565 D
O2063  H2543   1.110   .     S
O2064  H2544   1.110   .     S
O2162  Zr1730  2.159   1_565 S
O2164  Zr1732  2.159   1_565 S
O2170  Zr1738  2.159   1_565 S
O2172  Zr1740  2.159   1_565 D
O2178  Zr1746  2.159   1_556 S
O2179  Zr1747  2.159   1_556 S
O2186  Zr1754  2.159   1_556 D
O2187  Zr1755  2.159   1_556 S
O2195  Zr1763  2.159   1_655 S
O2196  Zr1764  2.159   1_655 S
O2203  Zr1771  2.159   1_655 S
O2204  Zr1772  2.159   1_655 S
O2211  Zr1767  2.159   1_655 D
O2212  Zr1768  2.159   1_655 S
O2219  Zr1775  2.159   1_655 S
O2220  Zr1776  2.159   1_655 S
O2230  Zr1758  2.159   1_556 S
O2231  Zr1759  2.159   1_556 D
O2238  Zr1750  2.159   1_556 S
O2239  Zr1751  2.159   1_556 S
O2242  Zr1742  2.159   1_565 S
O2244  Zr1744  2.159   1_565 S
O2250  Zr1734  2.159   1_565 D
O2252  Zr1736  2.159   1_565 S
O2258  Zr2062  2.141   1_545 D
O2260  Zr1795  2.141   1_545 S
O2262  Zr1942  2.141   1_545 S
O2264  Zr1945  2.141   1_545 S
O2266  Zr2056  2.141   1_545 S
O2268  Zr1780  2.141   1_545 D
O2270  Zr1930  2.141   1_545 D
O2272  Zr1972  2.141   1_545 S
O2274  Zr2038  2.141   1_554 S
O2275  Zr1822  2.141   1_554 S
O2278  Zr1924  2.141   1_554 S
O2279  Zr1984  2.141   1_554 S
O2282  Zr2032  2.141   1_554 S
O2283  Zr1810  2.141   1_554 D
O2286  Zr1906  2.141   1_554 S
O2287  Zr1909  2.141   1_554 S
O2291  Zr2017  2.141   1_455 S
O2292  Zr1855  2.141   1_455 S
O2295  Zr1870  2.141   1_455 D
O2296  Zr2002  2.141   1_455 D
O2299  Zr2026  2.141   1_455 S
O2300  Zr1840  2.141   1_455 S
O2303  Zr1885  2.141   1_455 S
O2304  Zr1888  2.141   1_455 S
O2307  Zr1888  2.141   1_455 D
O2308  Zr1885  2.141   1_455 S
O2311  Zr1855  2.141   1_455 S
O2312  Zr2017  2.141   1_455 S
O2315  Zr2002  2.141   1_455 S
O2316  Zr1870  2.141   1_455 S
O2319  Zr1840  2.141   1_455 D
O2320  Zr2026  2.141   1_455 D
O2322  Zr1810  2.141   1_554 S
O2323  Zr2032  2.141   1_554 S
O2326  Zr1984  2.141   1_554 S
O2327  Zr1924  2.141   1_554 D
O2330  Zr1822  2.141   1_554 S
O2331  Zr2038  2.141   1_554 D
O2334  Zr1909  2.141   1_554 S
O2335  Zr1906  2.141   1_554 S
O2338  Zr1945  2.141   1_545 D
O2340  Zr1942  2.141   1_545 S
O2342  Zr1780  2.141   1_545 S
O2344  Zr2056  2.141   1_545 S
O2346  Zr1972  2.141   1_545 S
O2348  Zr1930  2.141   1_545 S
O2350  Zr1795  2.141   1_545 S
O2352  Zr2062  2.141   1_545 S
