data_VIBFAQ

_audit_creation_method RASPA-1.0
_audit_creation_date 2020-4-3
_audit_author_name 'Rocio Bueno-Perez'

_cell_length_a    44.7776
_cell_length_b    44.7776
_cell_length_c    7.6581
_cell_angle_alpha 90
_cell_angle_beta  90
_cell_angle_gamma 90
_cell_volume      15354.7

_symmetry_cell_setting          tetragonal
_symmetry_space_group_name_Hall 'P 1'
_symmetry_space_group_name_H-M  'P 1'
_symmetry_Int_Tables_number     1

_symmetry_equiv_pos_as_xyz 'x,y,z'

loop_
_atom_site_label
_atom_site_type_symbol
_atom_site_fract_x
_atom_site_fract_y
_atom_site_fract_z
_atom_site_charge
Zr1      Zr     0.243960000000     0.001400000000     0.883170000000     0          
O1       O      0.240000000000     0.020200000000     0.633830000000     0          
O2       O      0.265698000000     0.965086000000     0.784020000000     0          
O3       O      0.283443000000     0.987885000000     0.454159000000     0          
O4       O      0.291335000000     0.936529000000     0.549241000000     0          
P1       P      0.292550000000     0.969309000000     0.631585000000     0          
C1       C      0.394369000000     0.976346000000     0.696565000000     0          
C2       C      0.382113000000     0.963863000000     0.554006000000     0          
C3       C      0.351278000000     0.961402000000     0.538671000000     0          
C4       C      0.332410000000     0.971243000000     0.665857000000     0          
C5       C      0.344519000000     0.982524000000     0.811682000000     0          
C6       C      0.375482000000     0.985115000000     0.826741000000     0          
C7       C      0.425820000000     0.984120000000     0.728710000000     0          
O5       O      0.537933000000     0.773588000000     0.754368000000     0          
O6       O      0.515923000000     0.795386000000     0.079706000000     0          
O7       O      0.574936000000     0.793962000000     0.984160000000     0          
P2       P      0.540557000000     0.798558000000     0.912611000000     0          
C8       C      0.519417000000     0.895387000000     0.780916000000     0          
C9       C      0.539253000000     0.888085000000     0.915799000000     0          
C10      C      0.547718000000     0.858684000000     0.944672000000     0          
C11      C      0.536871000000     0.836130000000     0.836921000000     0          
C12      C      0.517307000000     0.843044000000     0.700330000000     0          
C13      C      0.508871000000     0.872704000000     0.670840000000     0          
C14      C      0.516120000000     0.926590000000     0.738630000000     0          
C15      C      0.486550000000     0.935590000000     0.745710000000     0          
C16      C      0.463380000000     0.915460000000     0.763520000000     0          
C17      C      0.446460000000     0.961130000000     0.739600000000     0          
C18      C      0.437690000000     0.931760000000     0.758090000000     0          
N1       N      0.476710000000     0.964180000000     0.733810000000     0          
C19      C      0.564620000000     0.986690000000     0.717200000000     0          
C20      C      0.584690000000     0.963570000000     0.697360000000     0          
C21      C      0.538880000000     0.947120000000     0.720340000000     0          
C22      C      0.568240000000     0.938270000000     0.699470000000     0          
N2       N      0.535890000000     0.977130000000     0.727020000000     0          
Ni1      Ni     0.500000000000     0.000000000000     0.730670000000     0          
O8       O      0.734302000000     0.034914000000     0.784020000000     0          
O9       O      0.716557000000     0.012115000000     0.454159000000     0          
O10      O      0.708665000000     0.063471000000     0.549241000000     0          
P3       P      0.707450000000     0.030691000000     0.631585000000     0          
C23      C      0.605631000000     0.023654000000     0.696565000000     0          
C24      C      0.617887000000     0.036137000000     0.554006000000     0          
C25      C      0.648722000000     0.038598000000     0.538671000000     0          
C26      C      0.667590000000     0.028757000000     0.665857000000     0          
C27      C      0.655481000000     0.017476000000     0.811682000000     0          
C28      C      0.624518000000     0.014885000000     0.826741000000     0          
C29      C      0.574180000000     0.015880000000     0.728710000000     0          
O11      O      0.462067000000     0.226412000000     0.754368000000     0          
O12      O      0.484077000000     0.204614000000     0.079706000000     0          
O13      O      0.425064000000     0.206038000000     0.984160000000     0          
P4       P      0.459443000000     0.201442000000     0.912611000000     0          
C30      C      0.480583000000     0.104613000000     0.780916000000     0          
C31      C      0.460747000000     0.111915000000     0.915799000000     0          
C32      C      0.452282000000     0.141316000000     0.944672000000     0          
C33      C      0.463129000000     0.163870000000     0.836921000000     0          
C34      C      0.482693000000     0.156956000000     0.700330000000     0          
C35      C      0.491129000000     0.127296000000     0.670840000000     0          
C36      C      0.483880000000     0.073410000000     0.738630000000     0          
C37      C      0.513450000000     0.064410000000     0.745710000000     0          
C38      C      0.536620000000     0.084540000000     0.763520000000     0          
C39      C      0.553540000000     0.038870000000     0.739600000000     0          
C40      C      0.562310000000     0.068240000000     0.758090000000     0          
N3       N      0.523290000000     0.035820000000     0.733810000000     0          
C41      C      0.435380000000     0.013310000000     0.717200000000     0          
C42      C      0.415310000000     0.036430000000     0.697360000000     0          
C43      C      0.461120000000     0.052880000000     0.720340000000     0          
C44      C      0.431760000000     0.061730000000     0.699470000000     0          
N4       N      0.464110000000     0.022870000000     0.727020000000     0          
Zr2      Zr     0.756040000000     0.998600000000     0.883170000000     0          
O14      O      0.760000000000     0.979800000000     0.633830000000     0          
Zr3      Zr     0.498600000000     0.756040000000     0.133170000000     0          
Zr4      Zr     0.501400000000     0.756040000000     0.633170000000     0          
Zr5      Zr     0.243960000000     0.998600000000     0.383170000000     0          
Zr6      Zr     0.756040000000     0.001400000000     0.383170000000     0          
Zr7      Zr     0.498600000000     0.243960000000     0.633170000000     0          
Zr8      Zr     0.501400000000     0.243960000000     0.133170000000     0          
O15      O      0.240000000000     0.979800000000     0.133830000000     0          
O16      O      0.760000000000     0.020200000000     0.133830000000     0          
O17      O      0.283443000000     0.012115000000     0.954159000000     0          
O18      O      0.716557000000     0.987885000000     0.954159000000     0          
O19      O      0.226412000000     0.037933000000     0.004368000000     0          
O20      O      0.773588000000     0.962067000000     0.004368000000     0          
O21      O      0.795386000000     0.015923000000     0.829706000000     0          
O22      O      0.204614000000     0.984077000000     0.829706000000     0          
Zr1      Zr     0.998600000000     0.743960000000     0.133170000000     0          
O1       O      0.979800000000     0.740000000000     0.883830000000     0          
O2       O      0.034914000000     0.765698000000     0.034020000000     0          
O3       O      0.012115000000     0.783443000000     0.704159000000     0          
O4       O      0.063471000000     0.791335000000     0.799241000000     0          
P1       P      0.030691000000     0.792550000000     0.881585000000     0          
C1       C      0.023654000000     0.894369000000     0.946565000000     0          
C2       C      0.036137000000     0.882113000000     0.804006000000     0          
C3       C      0.038598000000     0.851278000000     0.788671000000     0          
C4       C      0.028757000000     0.832410000000     0.915857000000     0          
C5       C      0.017476000000     0.844519000000     0.061682000000     0          
C6       C      0.014885000000     0.875482000000     0.076741000000     0          
C7       C      0.015880000000     0.925820000000     0.978710000000     0          
O6       O      0.204614000000     0.015923000000     0.329706000000     0          
O7       O      0.206038000000     0.074936000000     0.234160000000     0          
P2       P      0.201442000000     0.040557000000     0.162611000000     0          
C8       C      0.104613000000     0.019417000000     0.030916000000     0          
C9       C      0.111915000000     0.039253000000     0.165799000000     0          
C10      C      0.141316000000     0.047718000000     0.194672000000     0          
C11      C      0.163870000000     0.036871000000     0.086921000000     0          
C12      C      0.156956000000     0.017307000000     0.950330000000     0          
C13      C      0.127296000000     0.008871000000     0.920840000000     0          
C14      C      0.073410000000     0.016120000000     0.988630000000     0          
C15      C      0.064410000000     0.986550000000     0.995710000000     0          
C16      C      0.084540000000     0.963380000000     0.013520000000     0          
C17      C      0.038870000000     0.946460000000     0.989600000000     0          
C18      C      0.068240000000     0.937690000000     0.008090000000     0          
N1       N      0.035820000000     0.976710000000     0.983810000000     0          
C19      C      0.013310000000     0.064620000000     0.967200000000     0          
C20      C      0.036430000000     0.084690000000     0.947360000000     0          
C21      C      0.052880000000     0.038880000000     0.970340000000     0          
C22      C      0.061730000000     0.068240000000     0.949470000000     0          
N2       N      0.022870000000     0.035890000000     0.977020000000     0          
Ni1      Ni     0.000000000000     0.000000000000     0.980670000000     0          
O8       O      0.965086000000     0.234302000000     0.034020000000     0          
O9       O      0.987885000000     0.216557000000     0.704159000000     0          
O10      O      0.936529000000     0.208665000000     0.799241000000     0          
P3       P      0.969309000000     0.207450000000     0.881585000000     0          
C23      C      0.976346000000     0.105631000000     0.946565000000     0          
C24      C      0.963863000000     0.117887000000     0.804006000000     0          
C25      C      0.961402000000     0.148722000000     0.788671000000     0          
C26      C      0.971243000000     0.167590000000     0.915857000000     0          
C27      C      0.982524000000     0.155481000000     0.061682000000     0          
C28      C      0.985115000000     0.124518000000     0.076741000000     0          
C29      C      0.984120000000     0.074180000000     0.978710000000     0          
O12      O      0.795386000000     0.984077000000     0.329706000000     0          
O13      O      0.793962000000     0.925064000000     0.234160000000     0          
P4       P      0.798558000000     0.959443000000     0.162611000000     0          
C30      C      0.895387000000     0.980583000000     0.030916000000     0          
C31      C      0.888085000000     0.960747000000     0.165799000000     0          
C32      C      0.858684000000     0.952282000000     0.194672000000     0          
C33      C      0.836130000000     0.963129000000     0.086921000000     0          
C34      C      0.843044000000     0.982693000000     0.950330000000     0          
C35      C      0.872704000000     0.991129000000     0.920840000000     0          
C36      C      0.926590000000     0.983880000000     0.988630000000     0          
C37      C      0.935590000000     0.013450000000     0.995710000000     0          
C38      C      0.915460000000     0.036620000000     0.013520000000     0          
C39      C      0.961130000000     0.053540000000     0.989600000000     0          
C40      C      0.931760000000     0.062310000000     0.008090000000     0          
N3       N      0.964180000000     0.023290000000     0.983810000000     0          
C41      C      0.986690000000     0.935380000000     0.967200000000     0          
C42      C      0.963570000000     0.915310000000     0.947360000000     0          
C43      C      0.947120000000     0.961120000000     0.970340000000     0          
C44      C      0.938270000000     0.931760000000     0.949470000000     0          
N4       N      0.977130000000     0.964110000000     0.977020000000     0          
Zr2      Zr     0.001400000000     0.256040000000     0.133170000000     0          
O14      O      0.020200000000     0.260000000000     0.883830000000     0          
Zr5      Zr     0.001400000000     0.743960000000     0.633170000000     0          
Zr6      Zr     0.998600000000     0.256040000000     0.633170000000     0          
O15      O      0.020200000000     0.740000000000     0.383830000000     0          
O16      O      0.979800000000     0.260000000000     0.383830000000     0          
O17      O      0.987885000000     0.783443000000     0.204159000000     0          
O18      O      0.012115000000     0.216557000000     0.204159000000     0          
O19      O      0.962067000000     0.726412000000     0.254368000000     0          
O20      O      0.037933000000     0.273588000000     0.254368000000     0          
O21      O      0.984077000000     0.295386000000     0.079706000000     0          
O22      O      0.015923000000     0.704614000000     0.079706000000     0          
Zr1      Zr     0.256040000000     0.498600000000     0.383170000000     0          
O1       O      0.260000000000     0.479800000000     0.133830000000     0          
O2       O      0.234302000000     0.534914000000     0.284020000000     0          
O3       O      0.216557000000     0.512115000000     0.954159000000     0          
O4       O      0.208665000000     0.563471000000     0.049241000000     0          
P1       P      0.207450000000     0.530691000000     0.131585000000     0          
C1       C      0.105631000000     0.523654000000     0.196565000000     0          
C2       C      0.117887000000     0.536137000000     0.054006000000     0          
C3       C      0.148722000000     0.538598000000     0.038671000000     0          
C4       C      0.167590000000     0.528757000000     0.165857000000     0          
C5       C      0.155481000000     0.517476000000     0.311682000000     0          
C6       C      0.124518000000     0.514885000000     0.326741000000     0          
C7       C      0.074180000000     0.515880000000     0.228710000000     0          
O6       O      0.984077000000     0.704614000000     0.579706000000     0          
O7       O      0.925064000000     0.706038000000     0.484160000000     0          
P2       P      0.959443000000     0.701442000000     0.412611000000     0          
C8       C      0.980583000000     0.604613000000     0.280916000000     0          
C9       C      0.960747000000     0.611915000000     0.415799000000     0          
C10      C      0.952282000000     0.641316000000     0.444672000000     0          
C11      C      0.963129000000     0.663870000000     0.336921000000     0          
C12      C      0.982693000000     0.656956000000     0.200330000000     0          
C13      C      0.991129000000     0.627296000000     0.170840000000     0          
C14      C      0.983880000000     0.573410000000     0.238630000000     0          
C15      C      0.013450000000     0.564410000000     0.245710000000     0          
C16      C      0.036620000000     0.584540000000     0.263520000000     0          
C17      C      0.053540000000     0.538870000000     0.239600000000     0          
C18      C      0.062310000000     0.568240000000     0.258090000000     0          
N1       N      0.023290000000     0.535820000000     0.233810000000     0          
C19      C      0.935380000000     0.513310000000     0.217200000000     0          
C20      C      0.915310000000     0.536430000000     0.197360000000     0          
C21      C      0.961120000000     0.552880000000     0.220340000000     0          
C22      C      0.931760000000     0.561730000000     0.199470000000     0          
N2       N      0.964110000000     0.522870000000     0.227020000000     0          
Ni1      Ni     0.000000000000     0.500000000000     0.230670000000     0          
O8       O      0.765698000000     0.465086000000     0.284020000000     0          
O9       O      0.783443000000     0.487885000000     0.954159000000     0          
O10      O      0.791335000000     0.436529000000     0.049241000000     0          
P3       P      0.792550000000     0.469309000000     0.131585000000     0          
C23      C      0.894369000000     0.476346000000     0.196565000000     0          
C24      C      0.882113000000     0.463863000000     0.054006000000     0          
C25      C      0.851278000000     0.461402000000     0.038671000000     0          
C26      C      0.832410000000     0.471243000000     0.165857000000     0          
C27      C      0.844519000000     0.482524000000     0.311682000000     0          
C28      C      0.875482000000     0.485115000000     0.326741000000     0          
C29      C      0.925820000000     0.484120000000     0.228710000000     0          
O12      O      0.015923000000     0.295386000000     0.579706000000     0          
O13      O      0.074936000000     0.293962000000     0.484160000000     0          
P4       P      0.040557000000     0.298558000000     0.412611000000     0          
C30      C      0.019417000000     0.395387000000     0.280916000000     0          
C31      C      0.039253000000     0.388085000000     0.415799000000     0          
C32      C      0.047718000000     0.358684000000     0.444672000000     0          
C33      C      0.036871000000     0.336130000000     0.336921000000     0          
C34      C      0.017307000000     0.343044000000     0.200330000000     0          
C35      C      0.008871000000     0.372704000000     0.170840000000     0          
C36      C      0.016120000000     0.426590000000     0.238630000000     0          
C37      C      0.986550000000     0.435590000000     0.245710000000     0          
C38      C      0.963380000000     0.415460000000     0.263520000000     0          
C39      C      0.946460000000     0.461130000000     0.239600000000     0          
C40      C      0.937690000000     0.431760000000     0.258090000000     0          
N3       N      0.976710000000     0.464180000000     0.233810000000     0          
C41      C      0.064620000000     0.486690000000     0.217200000000     0          
C42      C      0.084690000000     0.463570000000     0.197360000000     0          
C43      C      0.038880000000     0.447120000000     0.220340000000     0          
C44      C      0.068240000000     0.438270000000     0.199470000000     0          
N4       N      0.035890000000     0.477130000000     0.227020000000     0          
Zr2      Zr     0.743960000000     0.501400000000     0.383170000000     0          
O14      O      0.740000000000     0.520200000000     0.133830000000     0          
Zr5      Zr     0.256040000000     0.501400000000     0.883170000000     0          
Zr6      Zr     0.743960000000     0.498600000000     0.883170000000     0          
O15      O      0.260000000000     0.520200000000     0.633830000000     0          
O16      O      0.740000000000     0.479800000000     0.633830000000     0          
O17      O      0.216557000000     0.487885000000     0.454159000000     0          
O18      O      0.783443000000     0.512115000000     0.454159000000     0          
O19      O      0.273588000000     0.462067000000     0.504368000000     0          
O20      O      0.726412000000     0.537933000000     0.504368000000     0          
O21      O      0.704614000000     0.484077000000     0.329706000000     0          
O22      O      0.295386000000     0.515923000000     0.329706000000     0          
O1       O      0.520200000000     0.760000000000     0.383830000000     0          
O2       O      0.465086000000     0.734302000000     0.534020000000     0          
O3       O      0.487885000000     0.716557000000     0.204159000000     0          
O4       O      0.436529000000     0.708665000000     0.299241000000     0          
P1       P      0.469309000000     0.707450000000     0.381585000000     0          
C1       C      0.476346000000     0.605631000000     0.446565000000     0          
C2       C      0.463863000000     0.617887000000     0.304006000000     0          
C3       C      0.461402000000     0.648722000000     0.288671000000     0          
C4       C      0.471243000000     0.667590000000     0.415857000000     0          
C5       C      0.482524000000     0.655481000000     0.561682000000     0          
C6       C      0.485115000000     0.624518000000     0.576741000000     0          
C7       C      0.484120000000     0.574180000000     0.478710000000     0          
O6       O      0.295386000000     0.484077000000     0.829706000000     0          
O7       O      0.293962000000     0.425064000000     0.734160000000     0          
P2       P      0.298558000000     0.459443000000     0.662611000000     0          
C8       C      0.395387000000     0.480583000000     0.530916000000     0          
C9       C      0.388085000000     0.460747000000     0.665799000000     0          
C10      C      0.358684000000     0.452282000000     0.694672000000     0          
C11      C      0.336130000000     0.463129000000     0.586921000000     0          
C12      C      0.343044000000     0.482693000000     0.450330000000     0          
C13      C      0.372704000000     0.491129000000     0.420840000000     0          
C14      C      0.426590000000     0.483880000000     0.488630000000     0          
C15      C      0.435590000000     0.513450000000     0.495710000000     0          
C16      C      0.415460000000     0.536620000000     0.513520000000     0          
C17      C      0.461130000000     0.553540000000     0.489600000000     0          
C18      C      0.431760000000     0.562310000000     0.508090000000     0          
N1       N      0.464180000000     0.523290000000     0.483810000000     0          
C19      C      0.486690000000     0.435380000000     0.467200000000     0          
C20      C      0.463570000000     0.415310000000     0.447360000000     0          
C21      C      0.447120000000     0.461120000000     0.470340000000     0          
C22      C      0.438270000000     0.431760000000     0.449470000000     0          
N2       N      0.477130000000     0.464110000000     0.477020000000     0          
Ni1      Ni     0.500000000000     0.500000000000     0.480670000000     0          
O8       O      0.534914000000     0.265698000000     0.534020000000     0          
O9       O      0.512115000000     0.283443000000     0.204159000000     0          
O10      O      0.563471000000     0.291335000000     0.299241000000     0          
P3       P      0.530691000000     0.292550000000     0.381585000000     0          
C23      C      0.523654000000     0.394369000000     0.446565000000     0          
C24      C      0.536137000000     0.382113000000     0.304006000000     0          
C25      C      0.538598000000     0.351278000000     0.288671000000     0          
C26      C      0.528757000000     0.332410000000     0.415857000000     0          
C27      C      0.517476000000     0.344519000000     0.561682000000     0          
C28      C      0.514885000000     0.375482000000     0.576741000000     0          
C29      C      0.515880000000     0.425820000000     0.478710000000     0          
O12      O      0.704614000000     0.515923000000     0.829706000000     0          
O13      O      0.706038000000     0.574936000000     0.734160000000     0          
P4       P      0.701442000000     0.540557000000     0.662611000000     0          
C30      C      0.604613000000     0.519417000000     0.530916000000     0          
C31      C      0.611915000000     0.539253000000     0.665799000000     0          
C32      C      0.641316000000     0.547718000000     0.694672000000     0          
C33      C      0.663870000000     0.536871000000     0.586921000000     0          
C34      C      0.656956000000     0.517307000000     0.450330000000     0          
C35      C      0.627296000000     0.508871000000     0.420840000000     0          
C36      C      0.573410000000     0.516120000000     0.488630000000     0          
C37      C      0.564410000000     0.486550000000     0.495710000000     0          
C38      C      0.584540000000     0.463380000000     0.513520000000     0          
C39      C      0.538870000000     0.446460000000     0.489600000000     0          
C40      C      0.568240000000     0.437690000000     0.508090000000     0          
N3       N      0.535820000000     0.476710000000     0.483810000000     0          
C41      C      0.513310000000     0.564620000000     0.467200000000     0          
C42      C      0.536430000000     0.584690000000     0.447360000000     0          
C43      C      0.552880000000     0.538880000000     0.470340000000     0          
C44      C      0.561730000000     0.568240000000     0.449470000000     0          
N4       N      0.522870000000     0.535890000000     0.477020000000     0          
O14      O      0.479800000000     0.240000000000     0.383830000000     0          
O15      O      0.479800000000     0.760000000000     0.883830000000     0          
O16      O      0.520200000000     0.240000000000     0.883830000000     0          
O17      O      0.512115000000     0.716557000000     0.704159000000     0          
O18      O      0.487885000000     0.283443000000     0.704159000000     0          
O21      O      0.515923000000     0.204614000000     0.579706000000     0          
O22      O      0.484077000000     0.795386000000     0.579706000000     0          
O2       O      0.734302000000     0.965086000000     0.284020000000     0          
O4       O      0.708665000000     0.936529000000     0.049241000000     0          
P1       P      0.707450000000     0.969309000000     0.131585000000     0          
C1       C      0.605631000000     0.976346000000     0.196565000000     0          
C2       C      0.617887000000     0.963863000000     0.054006000000     0          
C3       C      0.648722000000     0.961402000000     0.038671000000     0          
C4       C      0.667590000000     0.971243000000     0.165857000000     0          
C5       C      0.655481000000     0.982524000000     0.311682000000     0          
C6       C      0.624518000000     0.985115000000     0.326741000000     0          
C7       C      0.574180000000     0.984120000000     0.228710000000     0          
O5       O      0.462067000000     0.773588000000     0.254368000000     0          
O7       O      0.425064000000     0.793962000000     0.484160000000     0          
P2       P      0.459443000000     0.798558000000     0.412611000000     0          
C8       C      0.480583000000     0.895387000000     0.280916000000     0          
C9       C      0.460747000000     0.888085000000     0.415799000000     0          
C10      C      0.452282000000     0.858684000000     0.444672000000     0          
C11      C      0.463129000000     0.836130000000     0.336921000000     0          
C12      C      0.482693000000     0.843044000000     0.200330000000     0          
C13      C      0.491129000000     0.872704000000     0.170840000000     0          
C14      C      0.483880000000     0.926590000000     0.238630000000     0          
C15      C      0.513450000000     0.935590000000     0.245710000000     0          
C16      C      0.536620000000     0.915460000000     0.263520000000     0          
C17      C      0.553540000000     0.961130000000     0.239600000000     0          
C18      C      0.562310000000     0.931760000000     0.258090000000     0          
N1       N      0.523290000000     0.964180000000     0.233810000000     0          
C19      C      0.435380000000     0.986690000000     0.217200000000     0          
C20      C      0.415310000000     0.963570000000     0.197360000000     0          
C21      C      0.461120000000     0.947120000000     0.220340000000     0          
C22      C      0.431760000000     0.938270000000     0.199470000000     0          
N2       N      0.464110000000     0.977130000000     0.227020000000     0          
Ni1      Ni     0.500000000000     0.000000000000     0.230670000000     0          
O8       O      0.265698000000     0.034914000000     0.284020000000     0          
O10      O      0.291335000000     0.063471000000     0.049241000000     0          
P3       P      0.292550000000     0.030691000000     0.131585000000     0          
C23      C      0.394369000000     0.023654000000     0.196565000000     0          
C24      C      0.382113000000     0.036137000000     0.054006000000     0          
C25      C      0.351278000000     0.038598000000     0.038671000000     0          
C26      C      0.332410000000     0.028757000000     0.165857000000     0          
C27      C      0.344519000000     0.017476000000     0.311682000000     0          
C28      C      0.375482000000     0.014885000000     0.326741000000     0          
C29      C      0.425820000000     0.015880000000     0.228710000000     0          
O11      O      0.537933000000     0.226412000000     0.254368000000     0          
O13      O      0.574936000000     0.206038000000     0.484160000000     0          
P4       P      0.540557000000     0.201442000000     0.412611000000     0          
C30      C      0.519417000000     0.104613000000     0.280916000000     0          
C31      C      0.539253000000     0.111915000000     0.415799000000     0          
C32      C      0.547718000000     0.141316000000     0.444672000000     0          
C33      C      0.536871000000     0.163870000000     0.336921000000     0          
C34      C      0.517307000000     0.156956000000     0.200330000000     0          
C35      C      0.508871000000     0.127296000000     0.170840000000     0          
C36      C      0.516120000000     0.073410000000     0.238630000000     0          
C37      C      0.486550000000     0.064410000000     0.245710000000     0          
C38      C      0.463380000000     0.084540000000     0.263520000000     0          
C39      C      0.446460000000     0.038870000000     0.239600000000     0          
C40      C      0.437690000000     0.068240000000     0.258090000000     0          
N3       N      0.476710000000     0.035820000000     0.233810000000     0          
C41      C      0.564620000000     0.013310000000     0.217200000000     0          
C42      C      0.584690000000     0.036430000000     0.197360000000     0          
C43      C      0.538880000000     0.052880000000     0.220340000000     0          
C44      C      0.568240000000     0.061730000000     0.199470000000     0          
N4       N      0.535890000000     0.022870000000     0.227020000000     0          
O19      O      0.773588000000     0.037933000000     0.504368000000     0          
O20      O      0.226412000000     0.962067000000     0.504368000000     0          
O2       O      0.034914000000     0.234302000000     0.534020000000     0          
O4       O      0.063471000000     0.208665000000     0.299241000000     0          
P1       P      0.030691000000     0.207450000000     0.381585000000     0          
C1       C      0.023654000000     0.105631000000     0.446565000000     0          
C2       C      0.036137000000     0.117887000000     0.304006000000     0          
C3       C      0.038598000000     0.148722000000     0.288671000000     0          
C4       C      0.028757000000     0.167590000000     0.415857000000     0          
C5       C      0.017476000000     0.155481000000     0.561682000000     0          
C6       C      0.014885000000     0.124518000000     0.576741000000     0          
C7       C      0.015880000000     0.074180000000     0.478710000000     0          
O7       O      0.206038000000     0.925064000000     0.734160000000     0          
P2       P      0.201442000000     0.959443000000     0.662611000000     0          
C8       C      0.104613000000     0.980583000000     0.530916000000     0          
C9       C      0.111915000000     0.960747000000     0.665799000000     0          
C10      C      0.141316000000     0.952282000000     0.694672000000     0          
C11      C      0.163870000000     0.963129000000     0.586921000000     0          
C12      C      0.156956000000     0.982693000000     0.450330000000     0          
C13      C      0.127296000000     0.991129000000     0.420840000000     0          
C14      C      0.073410000000     0.983880000000     0.488630000000     0          
C15      C      0.064410000000     0.013450000000     0.495710000000     0          
C16      C      0.084540000000     0.036620000000     0.513520000000     0          
C17      C      0.038870000000     0.053540000000     0.489600000000     0          
C18      C      0.068240000000     0.062310000000     0.508090000000     0          
N1       N      0.035820000000     0.023290000000     0.483810000000     0          
C19      C      0.013310000000     0.935380000000     0.467200000000     0          
C20      C      0.036430000000     0.915310000000     0.447360000000     0          
C21      C      0.052880000000     0.961120000000     0.470340000000     0          
C22      C      0.061730000000     0.931760000000     0.449470000000     0          
N2       N      0.022870000000     0.964110000000     0.477020000000     0          
Ni1      Ni     0.000000000000     0.000000000000     0.480670000000     0          
O8       O      0.965086000000     0.765698000000     0.534020000000     0          
O10      O      0.936529000000     0.791335000000     0.299241000000     0          
P3       P      0.969309000000     0.792550000000     0.381585000000     0          
C23      C      0.976346000000     0.894369000000     0.446565000000     0          
C24      C      0.963863000000     0.882113000000     0.304006000000     0          
C25      C      0.961402000000     0.851278000000     0.288671000000     0          
C26      C      0.971243000000     0.832410000000     0.415857000000     0          
C27      C      0.982524000000     0.844519000000     0.561682000000     0          
C28      C      0.985115000000     0.875482000000     0.576741000000     0          
C29      C      0.984120000000     0.925820000000     0.478710000000     0          
O13      O      0.793962000000     0.074936000000     0.734160000000     0          
P4       P      0.798558000000     0.040557000000     0.662611000000     0          
C30      C      0.895387000000     0.019417000000     0.530916000000     0          
C31      C      0.888085000000     0.039253000000     0.665799000000     0          
C32      C      0.858684000000     0.047718000000     0.694672000000     0          
C33      C      0.836130000000     0.036871000000     0.586921000000     0          
C34      C      0.843044000000     0.017307000000     0.450330000000     0          
C35      C      0.872704000000     0.008871000000     0.420840000000     0          
C36      C      0.926590000000     0.016120000000     0.488630000000     0          
C37      C      0.935590000000     0.986550000000     0.495710000000     0          
C38      C      0.915460000000     0.963380000000     0.513520000000     0          
C39      C      0.961130000000     0.946460000000     0.489600000000     0          
C40      C      0.931760000000     0.937690000000     0.508090000000     0          
N3       N      0.964180000000     0.976710000000     0.483810000000     0          
C41      C      0.986690000000     0.064620000000     0.467200000000     0          
C42      C      0.963570000000     0.084690000000     0.447360000000     0          
C43      C      0.947120000000     0.038880000000     0.470340000000     0          
C44      C      0.938270000000     0.068240000000     0.449470000000     0          
N4       N      0.977130000000     0.035890000000     0.477020000000     0          
O19      O      0.962067000000     0.273588000000     0.754368000000     0          
O20      O      0.037933000000     0.726412000000     0.754368000000     0          
O2       O      0.765698000000     0.534914000000     0.784020000000     0          
O4       O      0.791335000000     0.563471000000     0.549241000000     0          
P1       P      0.792550000000     0.530691000000     0.631585000000     0          
C1       C      0.894369000000     0.523654000000     0.696565000000     0          
C2       C      0.882113000000     0.536137000000     0.554006000000     0          
C3       C      0.851278000000     0.538598000000     0.538671000000     0          
C4       C      0.832410000000     0.528757000000     0.665857000000     0          
C5       C      0.844519000000     0.517476000000     0.811682000000     0          
C6       C      0.875482000000     0.514885000000     0.826741000000     0          
C7       C      0.925820000000     0.515880000000     0.728710000000     0          
O7       O      0.074936000000     0.706038000000     0.984160000000     0          
P2       P      0.040557000000     0.701442000000     0.912611000000     0          
C8       C      0.019417000000     0.604613000000     0.780916000000     0          
C9       C      0.039253000000     0.611915000000     0.915799000000     0          
C10      C      0.047718000000     0.641316000000     0.944672000000     0          
C11      C      0.036871000000     0.663870000000     0.836921000000     0          
C12      C      0.017307000000     0.656956000000     0.700330000000     0          
C13      C      0.008871000000     0.627296000000     0.670840000000     0          
C14      C      0.016120000000     0.573410000000     0.738630000000     0          
C15      C      0.986550000000     0.564410000000     0.745710000000     0          
C16      C      0.963380000000     0.584540000000     0.763520000000     0          
C17      C      0.946460000000     0.538870000000     0.739600000000     0          
C18      C      0.937690000000     0.568240000000     0.758090000000     0          
N1       N      0.976710000000     0.535820000000     0.733810000000     0          
C19      C      0.064620000000     0.513310000000     0.717200000000     0          
C20      C      0.084690000000     0.536430000000     0.697360000000     0          
C21      C      0.038880000000     0.552880000000     0.720340000000     0          
C22      C      0.068240000000     0.561730000000     0.699470000000     0          
N2       N      0.035890000000     0.522870000000     0.727020000000     0          
Ni1      Ni     0.000000000000     0.500000000000     0.730670000000     0          
O8       O      0.234302000000     0.465086000000     0.784020000000     0          
O10      O      0.208665000000     0.436529000000     0.549241000000     0          
P3       P      0.207450000000     0.469309000000     0.631585000000     0          
C23      C      0.105631000000     0.476346000000     0.696565000000     0          
C24      C      0.117887000000     0.463863000000     0.554006000000     0          
C25      C      0.148722000000     0.461402000000     0.538671000000     0          
C26      C      0.167590000000     0.471243000000     0.665857000000     0          
C27      C      0.155481000000     0.482524000000     0.811682000000     0          
C28      C      0.124518000000     0.485115000000     0.826741000000     0          
C29      C      0.074180000000     0.484120000000     0.728710000000     0          
O13      O      0.925064000000     0.293962000000     0.984160000000     0          
P4       P      0.959443000000     0.298558000000     0.912611000000     0          
C30      C      0.980583000000     0.395387000000     0.780916000000     0          
C31      C      0.960747000000     0.388085000000     0.915799000000     0          
C32      C      0.952282000000     0.358684000000     0.944672000000     0          
C33      C      0.963129000000     0.336130000000     0.836921000000     0          
C34      C      0.982693000000     0.343044000000     0.700330000000     0          
C35      C      0.991129000000     0.372704000000     0.670840000000     0          
C36      C      0.983880000000     0.426590000000     0.738630000000     0          
C37      C      0.013450000000     0.435590000000     0.745710000000     0          
C38      C      0.036620000000     0.415460000000     0.763520000000     0          
C39      C      0.053540000000     0.461130000000     0.739600000000     0          
C40      C      0.062310000000     0.431760000000     0.758090000000     0          
N3       N      0.023290000000     0.464180000000     0.733810000000     0          
C41      C      0.935380000000     0.486690000000     0.717200000000     0          
C42      C      0.915310000000     0.463570000000     0.697360000000     0          
C43      C      0.961120000000     0.447120000000     0.720340000000     0          
C44      C      0.931760000000     0.438270000000     0.699470000000     0          
N4       N      0.964110000000     0.477130000000     0.727020000000     0          
O19      O      0.726412000000     0.462067000000     0.004368000000     0          
O20      O      0.273588000000     0.537933000000     0.004368000000     0          
O2       O      0.465086000000     0.265698000000     0.034020000000     0          
O4       O      0.436529000000     0.291335000000     0.799241000000     0          
P1       P      0.469309000000     0.292550000000     0.881585000000     0          
C1       C      0.476346000000     0.394369000000     0.946565000000     0          
C2       C      0.463863000000     0.382113000000     0.804006000000     0          
C3       C      0.461402000000     0.351278000000     0.788671000000     0          
C4       C      0.471243000000     0.332410000000     0.915857000000     0          
C5       C      0.482524000000     0.344519000000     0.061682000000     0          
C6       C      0.485115000000     0.375482000000     0.076741000000     0          
C7       C      0.484120000000     0.425820000000     0.978710000000     0          
O7       O      0.293962000000     0.574936000000     0.234160000000     0          
P2       P      0.298558000000     0.540557000000     0.162611000000     0          
C8       C      0.395387000000     0.519417000000     0.030916000000     0          
C9       C      0.388085000000     0.539253000000     0.165799000000     0          
C10      C      0.358684000000     0.547718000000     0.194672000000     0          
C11      C      0.336130000000     0.536871000000     0.086921000000     0          
C12      C      0.343044000000     0.517307000000     0.950330000000     0          
C13      C      0.372704000000     0.508871000000     0.920840000000     0          
C14      C      0.426590000000     0.516120000000     0.988630000000     0          
C15      C      0.435590000000     0.486550000000     0.995710000000     0          
C16      C      0.415460000000     0.463380000000     0.013520000000     0          
C17      C      0.461130000000     0.446460000000     0.989600000000     0          
C18      C      0.431760000000     0.437690000000     0.008090000000     0          
N1       N      0.464180000000     0.476710000000     0.983810000000     0          
C19      C      0.486690000000     0.564620000000     0.967200000000     0          
C20      C      0.463570000000     0.584690000000     0.947360000000     0          
C21      C      0.447120000000     0.538880000000     0.970340000000     0          
C22      C      0.438270000000     0.568240000000     0.949470000000     0          
N2       N      0.477130000000     0.535890000000     0.977020000000     0          
Ni1      Ni     0.500000000000     0.500000000000     0.980670000000     0          
O8       O      0.534914000000     0.734302000000     0.034020000000     0          
O10      O      0.563471000000     0.708665000000     0.799241000000     0          
P3       P      0.530691000000     0.707450000000     0.881585000000     0          
C23      C      0.523654000000     0.605631000000     0.946565000000     0          
C24      C      0.536137000000     0.617887000000     0.804006000000     0          
C25      C      0.538598000000     0.648722000000     0.788671000000     0          
C26      C      0.528757000000     0.667590000000     0.915857000000     0          
C27      C      0.517476000000     0.655481000000     0.061682000000     0          
C28      C      0.514885000000     0.624518000000     0.076741000000     0          
C29      C      0.515880000000     0.574180000000     0.978710000000     0          
O13      O      0.706038000000     0.425064000000     0.234160000000     0          
P4       P      0.701442000000     0.459443000000     0.162611000000     0          
C30      C      0.604613000000     0.480583000000     0.030916000000     0          
C31      C      0.611915000000     0.460747000000     0.165799000000     0          
C32      C      0.641316000000     0.452282000000     0.194672000000     0          
C33      C      0.663870000000     0.463129000000     0.086921000000     0          
C34      C      0.656956000000     0.482693000000     0.950330000000     0          
C35      C      0.627296000000     0.491129000000     0.920840000000     0          
C36      C      0.573410000000     0.483880000000     0.988630000000     0          
C37      C      0.564410000000     0.513450000000     0.995710000000     0          
C38      C      0.584540000000     0.536620000000     0.013520000000     0          
C39      C      0.538870000000     0.553540000000     0.989600000000     0          
C40      C      0.568240000000     0.562310000000     0.008090000000     0          
N3       N      0.535820000000     0.523290000000     0.983810000000     0          
C41      C      0.513310000000     0.435380000000     0.967200000000     0          
C42      C      0.536430000000     0.415310000000     0.947360000000     0          
C43      C      0.552880000000     0.461120000000     0.970340000000     0          
C44      C      0.561730000000     0.431760000000     0.949470000000     0          
N4       N      0.522870000000     0.464110000000     0.977020000000     0          


