data_VIKLOT

_audit_creation_method RASPA-1.0
_audit_creation_date 2020-11-2
_audit_author_name 'Rocio Bueno-Perez'

_cell_length_a    31.7493
_cell_length_b    31.7493
_cell_length_c    31.7493
_cell_angle_alpha 90
_cell_angle_beta  90
_cell_angle_gamma 90
_cell_volume      32003.9

_symmetry_cell_setting          triclinic
_symmetry_space_group_name_Hall 'P 1'
_symmetry_space_group_name_H-M  'P 1'
_symmetry_Int_Tables_number     1

_symmetry_equiv_pos_as_xyz 'x,y,z'

loop_
_atom_site_label
_atom_site_type_symbol
_atom_site_fract_x
_atom_site_fract_y
_atom_site_fract_z
_atom_site_charge
O1       O      0.499500000000     0.612300000000     0.060100000000     0          
C2       C      0.505700000000     0.650300000000     0.205700000000     0          
C3       C      0.504000000000     0.620900000000     0.173300000000     0          
H4       H      0.505600000000     0.592500000000     0.180400000000     0          
O5       O      0.499500000000     0.112300000000     0.560100000000     0          
C6       C      0.509500000000     0.136300000000     0.748500000000     0          
H7       H      0.510600000000     0.107700000000     0.754700000000     0          
C8       C      0.505700000000     0.150300000000     0.705700000000     0          
C9       C      0.504000000000     0.120900000000     0.673300000000     0          
H10      H      0.505600000000     0.092500000000     0.680400000000     0          
C11      C      0.498000000000     0.105500000000     0.838500000000     0          
H12      H      0.524500000000     0.095200000000     0.828400000000     0          
H13      H      0.476700000000     0.090600000000     0.822000000000     0          
C14      C      0.496000000000     0.149700000000     0.820800000000     0          
H15      H      0.465200000000     0.153500000000     0.817500000000     0          
C16      C      0.494000000000     0.085100000000     0.881500000000     0          
H17      H      0.512600000000     0.061000000000     0.883400000000     0          
H18      H      0.465300000000     0.075500000000     0.886200000000     0          
N19      N      0.511400000000     0.163800000000     0.778000000000     0          
O20      O      0.999500000000     0.612300000000     0.560100000000     0          
C21      C      0.005700000000     0.650300000000     0.705700000000     0          
C22      C      0.004000000000     0.620900000000     0.673300000000     0          
H23      H      0.005600000000     0.592500000000     0.680400000000     0          
O24      O      0.999500000000     0.112300000000     0.060100000000     0          
C25      C      0.009500000000     0.136300000000     0.248500000000     0          
H26      H      0.010600000000     0.107700000000     0.254700000000     0          
C27      C      0.005700000000     0.150300000000     0.205700000000     0          
C28      C      0.004000000000     0.120900000000     0.173300000000     0          
H29      H      0.005600000000     0.092500000000     0.180400000000     0          
C30      C      0.998000000000     0.105500000000     0.338500000000     0          
H31      H      0.024500000000     0.095200000000     0.328400000000     0          
H32      H      0.976700000000     0.090600000000     0.322000000000     0          
C33      C      0.996000000000     0.149700000000     0.320800000000     0          
H34      H      0.965200000000     0.153500000000     0.317500000000     0          
C35      C      0.994000000000     0.085100000000     0.381500000000     0          
H36      H      0.012600000000     0.061000000000     0.383400000000     0          
H37      H      0.965300000000     0.075500000000     0.386200000000     0          
N38      N      0.011400000000     0.163800000000     0.278000000000     0          
O39      O      0.500500000000     0.387700000000     0.060100000000     0          
C40      C      0.494300000000     0.349700000000     0.205700000000     0          
C41      C      0.496000000000     0.379100000000     0.173300000000     0          
H42      H      0.494400000000     0.407500000000     0.180400000000     0          
O43      O      0.500500000000     0.887700000000     0.560100000000     0          
C44      C      0.490500000000     0.863700000000     0.748500000000     0          
H45      H      0.489400000000     0.892300000000     0.754700000000     0          
C46      C      0.494300000000     0.849700000000     0.705700000000     0          
C47      C      0.496000000000     0.879100000000     0.673300000000     0          
H48      H      0.494400000000     0.907500000000     0.680400000000     0          
C49      C      0.502000000000     0.894500000000     0.838500000000     0          
H50      H      0.475500000000     0.904800000000     0.828400000000     0          
H51      H      0.523300000000     0.909400000000     0.822000000000     0          
C52      C      0.504000000000     0.850300000000     0.820800000000     0          
H53      H      0.534800000000     0.846500000000     0.817500000000     0          
C54      C      0.506000000000     0.914900000000     0.881500000000     0          
H55      H      0.487400000000     0.939000000000     0.883400000000     0          
H56      H      0.534700000000     0.924500000000     0.886200000000     0          
N57      N      0.488600000000     0.836200000000     0.778000000000     0          
O58      O      0.000500000000     0.387700000000     0.560100000000     0          
C59      C      0.994300000000     0.349700000000     0.705700000000     0          
C60      C      0.996000000000     0.379100000000     0.673300000000     0          
H61      H      0.994400000000     0.407500000000     0.680400000000     0          
O62      O      0.000500000000     0.887700000000     0.060100000000     0          
C63      C      0.990500000000     0.863700000000     0.248500000000     0          
H64      H      0.989400000000     0.892300000000     0.254700000000     0          
C65      C      0.994300000000     0.849700000000     0.205700000000     0          
C66      C      0.996000000000     0.879100000000     0.173300000000     0          
H67      H      0.994400000000     0.907500000000     0.180400000000     0          
C68      C      0.002000000000     0.894500000000     0.338500000000     0          
H69      H      0.975500000000     0.904800000000     0.328400000000     0          
H70      H      0.023300000000     0.909400000000     0.322000000000     0          
C71      C      0.004000000000     0.850300000000     0.320800000000     0          
H72      H      0.034800000000     0.846500000000     0.317500000000     0          
C73      C      0.006000000000     0.914900000000     0.381500000000     0          
H74      H      0.987400000000     0.939000000000     0.383400000000     0          
H75      H      0.034700000000     0.924500000000     0.386200000000     0          
N76      N      0.988600000000     0.836200000000     0.278000000000     0          
O77      O      0.500500000000     0.612300000000     0.939900000000     0          
C78      C      0.494300000000     0.650300000000     0.794300000000     0          
C79      C      0.496000000000     0.620900000000     0.826700000000     0          
H80      H      0.494400000000     0.592500000000     0.819600000000     0          
O81      O      0.500500000000     0.112300000000     0.439900000000     0          
C82      C      0.490500000000     0.136300000000     0.251500000000     0          
H83      H      0.489400000000     0.107700000000     0.245300000000     0          
C84      C      0.494300000000     0.150300000000     0.294300000000     0          
C85      C      0.496000000000     0.120900000000     0.326700000000     0          
H86      H      0.494400000000     0.092500000000     0.319600000000     0          
C87      C      0.502000000000     0.105500000000     0.161500000000     0          
H88      H      0.475500000000     0.095200000000     0.171600000000     0          
H89      H      0.523300000000     0.090600000000     0.178000000000     0          
C90      C      0.504000000000     0.149700000000     0.179200000000     0          
H91      H      0.534800000000     0.153500000000     0.182500000000     0          
C92      C      0.506000000000     0.085100000000     0.118500000000     0          
H93      H      0.487400000000     0.061000000000     0.116600000000     0          
H94      H      0.534700000000     0.075500000000     0.113800000000     0          
N95      N      0.488600000000     0.163800000000     0.222000000000     0          
O96      O      0.000500000000     0.612300000000     0.439900000000     0          
C97      C      0.994300000000     0.650300000000     0.294300000000     0          
C98      C      0.996000000000     0.620900000000     0.326700000000     0          
H99      H      0.994400000000     0.592500000000     0.319600000000     0          
O100     O      0.000500000000     0.112300000000     0.939900000000     0          
C101     C      0.990500000000     0.136300000000     0.751500000000     0          
H102     H      0.989400000000     0.107700000000     0.745300000000     0          
C103     C      0.994300000000     0.150300000000     0.794300000000     0          
C104     C      0.996000000000     0.120900000000     0.826700000000     0          
H105     H      0.994400000000     0.092500000000     0.819600000000     0          
C106     C      0.002000000000     0.105500000000     0.661500000000     0          
H107     H      0.975500000000     0.095200000000     0.671600000000     0          
H108     H      0.023300000000     0.090600000000     0.678000000000     0          
C109     C      0.004000000000     0.149700000000     0.679200000000     0          
H110     H      0.034800000000     0.153500000000     0.682500000000     0          
C111     C      0.006000000000     0.085100000000     0.618500000000     0          
H112     H      0.987400000000     0.061000000000     0.616600000000     0          
H113     H      0.034700000000     0.075500000000     0.613800000000     0          
N114     N      0.988600000000     0.163800000000     0.722000000000     0          
O115     O      0.499500000000     0.387700000000     0.939900000000     0          
C116     C      0.505700000000     0.349700000000     0.794300000000     0          
C117     C      0.504000000000     0.379100000000     0.826700000000     0          
H118     H      0.505600000000     0.407500000000     0.819600000000     0          
O119     O      0.499500000000     0.887700000000     0.439900000000     0          
C120     C      0.509500000000     0.863700000000     0.251500000000     0          
H121     H      0.510600000000     0.892300000000     0.245300000000     0          
C122     C      0.505700000000     0.849700000000     0.294300000000     0          
C123     C      0.504000000000     0.879100000000     0.326700000000     0          
H124     H      0.505600000000     0.907500000000     0.319600000000     0          
C125     C      0.498000000000     0.894500000000     0.161500000000     0          
H126     H      0.524500000000     0.904800000000     0.171600000000     0          
H127     H      0.476700000000     0.909400000000     0.178000000000     0          
C128     C      0.496000000000     0.850300000000     0.179200000000     0          
H129     H      0.465200000000     0.846500000000     0.182500000000     0          
C130     C      0.494000000000     0.914900000000     0.118500000000     0          
H131     H      0.512600000000     0.939000000000     0.116600000000     0          
H132     H      0.465300000000     0.924500000000     0.113800000000     0          
N133     N      0.511400000000     0.836200000000     0.222000000000     0          
O134     O      0.999500000000     0.387700000000     0.439900000000     0          
C135     C      0.005700000000     0.349700000000     0.294300000000     0          
C136     C      0.004000000000     0.379100000000     0.326700000000     0          
H137     H      0.005600000000     0.407500000000     0.319600000000     0          
O138     O      0.999500000000     0.887700000000     0.939900000000     0          
C139     C      0.009500000000     0.863700000000     0.751500000000     0          
H140     H      0.010600000000     0.892300000000     0.745300000000     0          
C141     C      0.005700000000     0.849700000000     0.794300000000     0          
C142     C      0.004000000000     0.879100000000     0.826700000000     0          
H143     H      0.005600000000     0.907500000000     0.819600000000     0          
C144     C      0.998000000000     0.894500000000     0.661500000000     0          
H145     H      0.024500000000     0.904800000000     0.671600000000     0          
H146     H      0.976700000000     0.909400000000     0.678000000000     0          
C147     C      0.996000000000     0.850300000000     0.679200000000     0          
H148     H      0.965200000000     0.846500000000     0.682500000000     0          
C149     C      0.994000000000     0.914900000000     0.618500000000     0          
H150     H      0.012600000000     0.939000000000     0.616600000000     0          
H151     H      0.965300000000     0.924500000000     0.613800000000     0          
N152     N      0.011400000000     0.836200000000     0.722000000000     0          
O153     O      0.060100000000     0.499500000000     0.612300000000     0          
C154     C      0.205700000000     0.505700000000     0.650300000000     0          
C155     C      0.173300000000     0.504000000000     0.620900000000     0          
H156     H      0.180400000000     0.505600000000     0.592500000000     0          
O157     O      0.060100000000     0.999500000000     0.112300000000     0          
C158     C      0.248500000000     0.009500000000     0.136300000000     0          
H159     H      0.254700000000     0.010600000000     0.107700000000     0          
C160     C      0.205700000000     0.005700000000     0.150300000000     0          
C161     C      0.173300000000     0.004000000000     0.120900000000     0          
H162     H      0.180400000000     0.005600000000     0.092500000000     0          
C163     C      0.338500000000     0.998000000000     0.105500000000     0          
H164     H      0.328400000000     0.024500000000     0.095200000000     0          
H165     H      0.322000000000     0.976700000000     0.090600000000     0          
C166     C      0.320800000000     0.996000000000     0.149700000000     0          
H167     H      0.317500000000     0.965200000000     0.153500000000     0          
C168     C      0.381500000000     0.994000000000     0.085100000000     0          
H169     H      0.383400000000     0.012600000000     0.061000000000     0          
H170     H      0.386200000000     0.965300000000     0.075500000000     0          
N171     N      0.278000000000     0.011400000000     0.163800000000     0          
O172     O      0.560100000000     0.499500000000     0.112300000000     0          
C173     C      0.748500000000     0.509500000000     0.136300000000     0          
H174     H      0.754700000000     0.510600000000     0.107700000000     0          
C175     C      0.705700000000     0.505700000000     0.150300000000     0          
C176     C      0.673300000000     0.504000000000     0.120900000000     0          
H177     H      0.680400000000     0.505600000000     0.092500000000     0          
C178     C      0.838500000000     0.498000000000     0.105500000000     0          
H179     H      0.828400000000     0.524500000000     0.095200000000     0          
H180     H      0.822000000000     0.476700000000     0.090600000000     0          
C181     C      0.820800000000     0.496000000000     0.149700000000     0          
H182     H      0.817500000000     0.465200000000     0.153500000000     0          
C183     C      0.881500000000     0.494000000000     0.085100000000     0          
H184     H      0.883400000000     0.512600000000     0.061000000000     0          
H185     H      0.886200000000     0.465300000000     0.075500000000     0          
N186     N      0.778000000000     0.511400000000     0.163800000000     0          
O187     O      0.560100000000     0.999500000000     0.612300000000     0          
C188     C      0.705700000000     0.005700000000     0.650300000000     0          
C189     C      0.673300000000     0.004000000000     0.620900000000     0          
H190     H      0.680400000000     0.005600000000     0.592500000000     0          
O191     O      0.060100000000     0.500500000000     0.387700000000     0          
C192     C      0.205700000000     0.494300000000     0.349700000000     0          
C193     C      0.173300000000     0.496000000000     0.379100000000     0          
H194     H      0.180400000000     0.494400000000     0.407500000000     0          
O195     O      0.060100000000     0.000500000000     0.887700000000     0          
C196     C      0.248500000000     0.990500000000     0.863700000000     0          
H197     H      0.254700000000     0.989400000000     0.892300000000     0          
C198     C      0.205700000000     0.994300000000     0.849700000000     0          
C199     C      0.173300000000     0.996000000000     0.879100000000     0          
H200     H      0.180400000000     0.994400000000     0.907500000000     0          
C201     C      0.338500000000     0.002000000000     0.894500000000     0          
H202     H      0.328400000000     0.975500000000     0.904800000000     0          
H203     H      0.322000000000     0.023300000000     0.909400000000     0          
C204     C      0.320800000000     0.004000000000     0.850300000000     0          
H205     H      0.317500000000     0.034800000000     0.846500000000     0          
C206     C      0.381500000000     0.006000000000     0.914900000000     0          
H207     H      0.383400000000     0.987400000000     0.939000000000     0          
H208     H      0.386200000000     0.034700000000     0.924500000000     0          
N209     N      0.278000000000     0.988600000000     0.836200000000     0          
O210     O      0.560100000000     0.500500000000     0.887700000000     0          
C211     C      0.748500000000     0.490500000000     0.863700000000     0          
H212     H      0.754700000000     0.489400000000     0.892300000000     0          
C213     C      0.705700000000     0.494300000000     0.849700000000     0          
C214     C      0.673300000000     0.496000000000     0.879100000000     0          
H215     H      0.680400000000     0.494400000000     0.907500000000     0          
C216     C      0.838500000000     0.502000000000     0.894500000000     0          
H217     H      0.828400000000     0.475500000000     0.904800000000     0          
H218     H      0.822000000000     0.523300000000     0.909400000000     0          
C219     C      0.820800000000     0.504000000000     0.850300000000     0          
H220     H      0.817500000000     0.534800000000     0.846500000000     0          
C221     C      0.881500000000     0.506000000000     0.914900000000     0          
H222     H      0.883400000000     0.487400000000     0.939000000000     0          
H223     H      0.886200000000     0.534700000000     0.924500000000     0          
N224     N      0.778000000000     0.488600000000     0.836200000000     0          
O225     O      0.560100000000     0.000500000000     0.387700000000     0          
C226     C      0.705700000000     0.994300000000     0.349700000000     0          
C227     C      0.673300000000     0.996000000000     0.379100000000     0          
H228     H      0.680400000000     0.994400000000     0.407500000000     0          
O229     O      0.939900000000     0.500500000000     0.612300000000     0          
C230     C      0.794300000000     0.494300000000     0.650300000000     0          
C231     C      0.826700000000     0.496000000000     0.620900000000     0          
H232     H      0.819600000000     0.494400000000     0.592500000000     0          
O233     O      0.939900000000     0.000500000000     0.112300000000     0          
C234     C      0.751500000000     0.990500000000     0.136300000000     0          
H235     H      0.745300000000     0.989400000000     0.107700000000     0          
C236     C      0.794300000000     0.994300000000     0.150300000000     0          
C237     C      0.826700000000     0.996000000000     0.120900000000     0          
H238     H      0.819600000000     0.994400000000     0.092500000000     0          
C239     C      0.661500000000     0.002000000000     0.105500000000     0          
H240     H      0.671600000000     0.975500000000     0.095200000000     0          
H241     H      0.678000000000     0.023300000000     0.090600000000     0          
C242     C      0.679200000000     0.004000000000     0.149700000000     0          
H243     H      0.682500000000     0.034800000000     0.153500000000     0          
C244     C      0.618500000000     0.006000000000     0.085100000000     0          
H245     H      0.616600000000     0.987400000000     0.061000000000     0          
H246     H      0.613800000000     0.034700000000     0.075500000000     0          
N247     N      0.722000000000     0.988600000000     0.163800000000     0          
O248     O      0.439900000000     0.500500000000     0.112300000000     0          
C249     C      0.251500000000     0.490500000000     0.136300000000     0          
H250     H      0.245300000000     0.489400000000     0.107700000000     0          
C251     C      0.294300000000     0.494300000000     0.150300000000     0          
C252     C      0.326700000000     0.496000000000     0.120900000000     0          
H253     H      0.319600000000     0.494400000000     0.092500000000     0          
C254     C      0.161500000000     0.502000000000     0.105500000000     0          
H255     H      0.171600000000     0.475500000000     0.095200000000     0          
H256     H      0.178000000000     0.523300000000     0.090600000000     0          
C257     C      0.179200000000     0.504000000000     0.149700000000     0          
H258     H      0.182500000000     0.534800000000     0.153500000000     0          
C259     C      0.118500000000     0.506000000000     0.085100000000     0          
H260     H      0.116600000000     0.487400000000     0.061000000000     0          
H261     H      0.113800000000     0.534700000000     0.075500000000     0          
N262     N      0.222000000000     0.488600000000     0.163800000000     0          
O263     O      0.439900000000     0.000500000000     0.612300000000     0          
C264     C      0.294300000000     0.994300000000     0.650300000000     0          
C265     C      0.326700000000     0.996000000000     0.620900000000     0          
H266     H      0.319600000000     0.994400000000     0.592500000000     0          
O267     O      0.939900000000     0.499500000000     0.387700000000     0          
C268     C      0.794300000000     0.505700000000     0.349700000000     0          
C269     C      0.826700000000     0.504000000000     0.379100000000     0          
H270     H      0.819600000000     0.505600000000     0.407500000000     0          
O271     O      0.939900000000     0.999500000000     0.887700000000     0          
C272     C      0.751500000000     0.009500000000     0.863700000000     0          
H273     H      0.745300000000     0.010600000000     0.892300000000     0          
C274     C      0.794300000000     0.005700000000     0.849700000000     0          
C275     C      0.826700000000     0.004000000000     0.879100000000     0          
H276     H      0.819600000000     0.005600000000     0.907500000000     0          
C277     C      0.661500000000     0.998000000000     0.894500000000     0          
H278     H      0.671600000000     0.024500000000     0.904800000000     0          
H279     H      0.678000000000     0.976700000000     0.909400000000     0          
C280     C      0.679200000000     0.996000000000     0.850300000000     0          
H281     H      0.682500000000     0.965200000000     0.846500000000     0          
C282     C      0.618500000000     0.994000000000     0.914900000000     0          
H283     H      0.616600000000     0.012600000000     0.939000000000     0          
H284     H      0.613800000000     0.965300000000     0.924500000000     0          
N285     N      0.722000000000     0.011400000000     0.836200000000     0          
O286     O      0.439900000000     0.499500000000     0.887700000000     0          
C287     C      0.251500000000     0.509500000000     0.863700000000     0          
H288     H      0.245300000000     0.510600000000     0.892300000000     0          
C289     C      0.294300000000     0.505700000000     0.849700000000     0          
C290     C      0.326700000000     0.504000000000     0.879100000000     0          
H291     H      0.319600000000     0.505600000000     0.907500000000     0          
C292     C      0.161500000000     0.498000000000     0.894500000000     0          
H293     H      0.171600000000     0.524500000000     0.904800000000     0          
H294     H      0.178000000000     0.476700000000     0.909400000000     0          
C295     C      0.179200000000     0.496000000000     0.850300000000     0          
H296     H      0.182500000000     0.465200000000     0.846500000000     0          
C297     C      0.118500000000     0.494000000000     0.914900000000     0          
H298     H      0.116600000000     0.512600000000     0.939000000000     0          
H299     H      0.113800000000     0.465300000000     0.924500000000     0          
N300     N      0.222000000000     0.511400000000     0.836200000000     0          
O301     O      0.439900000000     0.999500000000     0.387700000000     0          
C302     C      0.294300000000     0.005700000000     0.349700000000     0          
C303     C      0.326700000000     0.004000000000     0.379100000000     0          
H304     H      0.319600000000     0.005600000000     0.407500000000     0          
O305     O      0.612300000000     0.060100000000     0.499500000000     0          
C306     C      0.650300000000     0.205700000000     0.505700000000     0          
C307     C      0.620900000000     0.173300000000     0.504000000000     0          
H308     H      0.592500000000     0.180400000000     0.505600000000     0          
O309     O      0.612300000000     0.560100000000     0.999500000000     0          
C310     C      0.636300000000     0.748500000000     0.009500000000     0          
H311     H      0.607700000000     0.754700000000     0.010600000000     0          
C312     C      0.650300000000     0.705700000000     0.005700000000     0          
C313     C      0.620900000000     0.673300000000     0.004000000000     0          
H314     H      0.592500000000     0.680400000000     0.005600000000     0          
C315     C      0.605500000000     0.838500000000     0.998000000000     0          
H316     H      0.595200000000     0.828400000000     0.024500000000     0          
H317     H      0.590600000000     0.822000000000     0.976700000000     0          
C318     C      0.649700000000     0.820800000000     0.996000000000     0          
H319     H      0.653500000000     0.817500000000     0.965200000000     0          
C320     C      0.585100000000     0.881500000000     0.994000000000     0          
H321     H      0.561000000000     0.883400000000     0.012600000000     0          
H322     H      0.575500000000     0.886200000000     0.965300000000     0          
N323     N      0.663800000000     0.778000000000     0.011400000000     0          
O324     O      0.112300000000     0.060100000000     0.999500000000     0          
C325     C      0.150300000000     0.205700000000     0.005700000000     0          
C326     C      0.120900000000     0.173300000000     0.004000000000     0          
H327     H      0.092500000000     0.180400000000     0.005600000000     0          
O328     O      0.112300000000     0.560100000000     0.499500000000     0          
C329     C      0.136300000000     0.748500000000     0.509500000000     0          
H330     H      0.107700000000     0.754700000000     0.510600000000     0          
C331     C      0.150300000000     0.705700000000     0.505700000000     0          
C332     C      0.120900000000     0.673300000000     0.504000000000     0          
H333     H      0.092500000000     0.680400000000     0.505600000000     0          
C334     C      0.105500000000     0.838500000000     0.498000000000     0          
H335     H      0.095200000000     0.828400000000     0.524500000000     0          
H336     H      0.090600000000     0.822000000000     0.476700000000     0          
C337     C      0.149700000000     0.820800000000     0.496000000000     0          
H338     H      0.153500000000     0.817500000000     0.465200000000     0          
C339     C      0.085100000000     0.881500000000     0.494000000000     0          
H340     H      0.061000000000     0.883400000000     0.512600000000     0          
H341     H      0.075500000000     0.886200000000     0.465300000000     0          
N342     N      0.163800000000     0.778000000000     0.511400000000     0          
O343     O      0.387700000000     0.060100000000     0.500500000000     0          
C344     C      0.349700000000     0.205700000000     0.494300000000     0          
C345     C      0.379100000000     0.173300000000     0.496000000000     0          
H346     H      0.407500000000     0.180400000000     0.494400000000     0          
O347     O      0.387700000000     0.560100000000     0.000500000000     0          
C348     C      0.363700000000     0.748500000000     0.990500000000     0          
H349     H      0.392300000000     0.754700000000     0.989400000000     0          
C350     C      0.349700000000     0.705700000000     0.994300000000     0          
C351     C      0.379100000000     0.673300000000     0.996000000000     0          
H352     H      0.407500000000     0.680400000000     0.994400000000     0          
C353     C      0.394500000000     0.838500000000     0.002000000000     0          
H354     H      0.404800000000     0.828400000000     0.975500000000     0          
H355     H      0.409400000000     0.822000000000     0.023300000000     0          
C356     C      0.350300000000     0.820800000000     0.004000000000     0          
H357     H      0.346500000000     0.817500000000     0.034800000000     0          
C358     C      0.414900000000     0.881500000000     0.006000000000     0          
H359     H      0.439000000000     0.883400000000     0.987400000000     0          
H360     H      0.424500000000     0.886200000000     0.034700000000     0          
N361     N      0.336200000000     0.778000000000     0.988600000000     0          
O362     O      0.887700000000     0.060100000000     0.000500000000     0          
C363     C      0.849700000000     0.205700000000     0.994300000000     0          
C364     C      0.879100000000     0.173300000000     0.996000000000     0          
H365     H      0.907500000000     0.180400000000     0.994400000000     0          
O366     O      0.887700000000     0.560100000000     0.500500000000     0          
C367     C      0.863700000000     0.748500000000     0.490500000000     0          
H368     H      0.892300000000     0.754700000000     0.489400000000     0          
C369     C      0.849700000000     0.705700000000     0.494300000000     0          
C370     C      0.879100000000     0.673300000000     0.496000000000     0          
H371     H      0.907500000000     0.680400000000     0.494400000000     0          
C372     C      0.894500000000     0.838500000000     0.502000000000     0          
H373     H      0.904800000000     0.828400000000     0.475500000000     0          
H374     H      0.909400000000     0.822000000000     0.523300000000     0          
C375     C      0.850300000000     0.820800000000     0.504000000000     0          
H376     H      0.846500000000     0.817500000000     0.534800000000     0          
C377     C      0.914900000000     0.881500000000     0.506000000000     0          
H378     H      0.939000000000     0.883400000000     0.487400000000     0          
H379     H      0.924500000000     0.886200000000     0.534700000000     0          
N380     N      0.836200000000     0.778000000000     0.488600000000     0          
O381     O      0.612300000000     0.939900000000     0.500500000000     0          
C382     C      0.650300000000     0.794300000000     0.494300000000     0          
C383     C      0.620900000000     0.826700000000     0.496000000000     0          
H384     H      0.592500000000     0.819600000000     0.494400000000     0          
O385     O      0.612300000000     0.439900000000     0.000500000000     0          
C386     C      0.636300000000     0.251500000000     0.990500000000     0          
H387     H      0.607700000000     0.245300000000     0.989400000000     0          
C388     C      0.650300000000     0.294300000000     0.994300000000     0          
C389     C      0.620900000000     0.326700000000     0.996000000000     0          
H390     H      0.592500000000     0.319600000000     0.994400000000     0          
C391     C      0.605500000000     0.161500000000     0.002000000000     0          
H392     H      0.595200000000     0.171600000000     0.975500000000     0          
H393     H      0.590600000000     0.178000000000     0.023300000000     0          
C394     C      0.649700000000     0.179200000000     0.004000000000     0          
H395     H      0.653500000000     0.182500000000     0.034800000000     0          
C396     C      0.585100000000     0.118500000000     0.006000000000     0          
H397     H      0.561000000000     0.116600000000     0.987400000000     0          
H398     H      0.575500000000     0.113800000000     0.034700000000     0          
N399     N      0.663800000000     0.222000000000     0.988600000000     0          
O400     O      0.112300000000     0.939900000000     0.000500000000     0          
C401     C      0.150300000000     0.794300000000     0.994300000000     0          
C402     C      0.120900000000     0.826700000000     0.996000000000     0          
H403     H      0.092500000000     0.819600000000     0.994400000000     0          
O404     O      0.112300000000     0.439900000000     0.500500000000     0          
C405     C      0.136300000000     0.251500000000     0.490500000000     0          
H406     H      0.107700000000     0.245300000000     0.489400000000     0          
C407     C      0.150300000000     0.294300000000     0.494300000000     0          
C408     C      0.120900000000     0.326700000000     0.496000000000     0          
H409     H      0.092500000000     0.319600000000     0.494400000000     0          
C410     C      0.105500000000     0.161500000000     0.502000000000     0          
H411     H      0.095200000000     0.171600000000     0.475500000000     0          
H412     H      0.090600000000     0.178000000000     0.523300000000     0          
C413     C      0.149700000000     0.179200000000     0.504000000000     0          
H414     H      0.153500000000     0.182500000000     0.534800000000     0          
C415     C      0.085100000000     0.118500000000     0.506000000000     0          
H416     H      0.061000000000     0.116600000000     0.487400000000     0          
H417     H      0.075500000000     0.113800000000     0.534700000000     0          
N418     N      0.163800000000     0.222000000000     0.488600000000     0          
O419     O      0.387700000000     0.939900000000     0.499500000000     0          
C420     C      0.349700000000     0.794300000000     0.505700000000     0          
C421     C      0.379100000000     0.826700000000     0.504000000000     0          
H422     H      0.407500000000     0.819600000000     0.505600000000     0          
O423     O      0.387700000000     0.439900000000     0.999500000000     0          
C424     C      0.363700000000     0.251500000000     0.009500000000     0          
H425     H      0.392300000000     0.245300000000     0.010600000000     0          
C426     C      0.349700000000     0.294300000000     0.005700000000     0          
C427     C      0.379100000000     0.326700000000     0.004000000000     0          
H428     H      0.407500000000     0.319600000000     0.005600000000     0          
C429     C      0.394500000000     0.161500000000     0.998000000000     0          
H430     H      0.404800000000     0.171600000000     0.024500000000     0          
H431     H      0.409400000000     0.178000000000     0.976700000000     0          
C432     C      0.350300000000     0.179200000000     0.996000000000     0          
H433     H      0.346500000000     0.182500000000     0.965200000000     0          
C434     C      0.414900000000     0.118500000000     0.994000000000     0          
H435     H      0.439000000000     0.116600000000     0.012600000000     0          
H436     H      0.424500000000     0.113800000000     0.965300000000     0          
N437     N      0.336200000000     0.222000000000     0.011400000000     0          
O438     O      0.887700000000     0.939900000000     0.999500000000     0          
C439     C      0.849700000000     0.794300000000     0.005700000000     0          
C440     C      0.879100000000     0.826700000000     0.004000000000     0          
H441     H      0.907500000000     0.819600000000     0.005600000000     0          
O442     O      0.887700000000     0.439900000000     0.499500000000     0          
C443     C      0.863700000000     0.251500000000     0.509500000000     0          
H444     H      0.892300000000     0.245300000000     0.510600000000     0          
C445     C      0.849700000000     0.294300000000     0.505700000000     0          
C446     C      0.879100000000     0.326700000000     0.504000000000     0          
H447     H      0.907500000000     0.319600000000     0.505600000000     0          
C448     C      0.894500000000     0.161500000000     0.498000000000     0          
H449     H      0.904800000000     0.171600000000     0.524500000000     0          
H450     H      0.909400000000     0.178000000000     0.476700000000     0          
C451     C      0.850300000000     0.179200000000     0.496000000000     0          
H452     H      0.846500000000     0.182500000000     0.465200000000     0          
C453     C      0.914900000000     0.118500000000     0.494000000000     0          
H454     H      0.939000000000     0.116600000000     0.512600000000     0          
H455     H      0.924500000000     0.113800000000     0.465300000000     0          
N456     N      0.836200000000     0.222000000000     0.511400000000     0          
O457     O      0.612300000000     0.499500000000     0.939900000000     0          
C458     C      0.650300000000     0.505700000000     0.794300000000     0          
C459     C      0.620900000000     0.504000000000     0.826700000000     0          
H460     H      0.592500000000     0.505600000000     0.819600000000     0          
O461     O      0.612300000000     0.999500000000     0.439900000000     0          
C462     C      0.636300000000     0.009500000000     0.251500000000     0          
H463     H      0.607700000000     0.010600000000     0.245300000000     0          
C464     C      0.650300000000     0.005700000000     0.294300000000     0          
C465     C      0.620900000000     0.004000000000     0.326700000000     0          
H466     H      0.592500000000     0.005600000000     0.319600000000     0          
C467     C      0.605500000000     0.998000000000     0.161500000000     0          
H468     H      0.595200000000     0.024500000000     0.171600000000     0          
H469     H      0.590600000000     0.976700000000     0.178000000000     0          
C470     C      0.649700000000     0.996000000000     0.179200000000     0          
H471     H      0.653500000000     0.965200000000     0.182500000000     0          
C472     C      0.585100000000     0.994000000000     0.118500000000     0          
H473     H      0.561000000000     0.012600000000     0.116600000000     0          
H474     H      0.575500000000     0.965300000000     0.113800000000     0          
N475     N      0.663800000000     0.011400000000     0.222000000000     0          
O476     O      0.112300000000     0.499500000000     0.439900000000     0          
C477     C      0.136300000000     0.509500000000     0.251500000000     0          
H478     H      0.107700000000     0.510600000000     0.245300000000     0          
C479     C      0.150300000000     0.505700000000     0.294300000000     0          
C480     C      0.120900000000     0.504000000000     0.326700000000     0          
H481     H      0.092500000000     0.505600000000     0.319600000000     0          
C482     C      0.105500000000     0.498000000000     0.161500000000     0          
H483     H      0.095200000000     0.524500000000     0.171600000000     0          
H484     H      0.090600000000     0.476700000000     0.178000000000     0          
C485     C      0.149700000000     0.496000000000     0.179200000000     0          
H486     H      0.153500000000     0.465200000000     0.182500000000     0          
C487     C      0.085100000000     0.494000000000     0.118500000000     0          
H488     H      0.061000000000     0.512600000000     0.116600000000     0          
H489     H      0.075500000000     0.465300000000     0.113800000000     0          
N490     N      0.163800000000     0.511400000000     0.222000000000     0          
O491     O      0.112300000000     0.999500000000     0.939900000000     0          
C492     C      0.150300000000     0.005700000000     0.794300000000     0          
C493     C      0.120900000000     0.004000000000     0.826700000000     0          
H494     H      0.092500000000     0.005600000000     0.819600000000     0          
O495     O      0.387700000000     0.500500000000     0.939900000000     0          
C496     C      0.349700000000     0.494300000000     0.794300000000     0          
C497     C      0.379100000000     0.496000000000     0.826700000000     0          
H498     H      0.407500000000     0.494400000000     0.819600000000     0          
O499     O      0.387700000000     0.000500000000     0.439900000000     0          
C500     C      0.363700000000     0.990500000000     0.251500000000     0          
H501     H      0.392300000000     0.989400000000     0.245300000000     0          
C502     C      0.349700000000     0.994300000000     0.294300000000     0          
C503     C      0.379100000000     0.996000000000     0.326700000000     0          
H504     H      0.407500000000     0.994400000000     0.319600000000     0          
C505     C      0.394500000000     0.002000000000     0.161500000000     0          
H506     H      0.404800000000     0.975500000000     0.171600000000     0          
H507     H      0.409400000000     0.023300000000     0.178000000000     0          
C508     C      0.350300000000     0.004000000000     0.179200000000     0          
H509     H      0.346500000000     0.034800000000     0.182500000000     0          
C510     C      0.414900000000     0.006000000000     0.118500000000     0          
H511     H      0.439000000000     0.987400000000     0.116600000000     0          
H512     H      0.424500000000     0.034700000000     0.113800000000     0          
N513     N      0.336200000000     0.988600000000     0.222000000000     0          
O514     O      0.887700000000     0.500500000000     0.439900000000     0          
C515     C      0.863700000000     0.490500000000     0.251500000000     0          
H516     H      0.892300000000     0.489400000000     0.245300000000     0          
C517     C      0.849700000000     0.494300000000     0.294300000000     0          
C518     C      0.879100000000     0.496000000000     0.326700000000     0          
H519     H      0.907500000000     0.494400000000     0.319600000000     0          
C520     C      0.894500000000     0.502000000000     0.161500000000     0          
H521     H      0.904800000000     0.475500000000     0.171600000000     0          
H522     H      0.909400000000     0.523300000000     0.178000000000     0          
C523     C      0.850300000000     0.504000000000     0.179200000000     0          
H524     H      0.846500000000     0.534800000000     0.182500000000     0          
C525     C      0.914900000000     0.506000000000     0.118500000000     0          
H526     H      0.939000000000     0.487400000000     0.116600000000     0          
H527     H      0.924500000000     0.534700000000     0.113800000000     0          
N528     N      0.836200000000     0.488600000000     0.222000000000     0          
O529     O      0.887700000000     0.000500000000     0.939900000000     0          
C530     C      0.849700000000     0.994300000000     0.794300000000     0          
C531     C      0.879100000000     0.996000000000     0.826700000000     0          
H532     H      0.907500000000     0.994400000000     0.819600000000     0          
O533     O      0.612300000000     0.500500000000     0.060100000000     0          
C534     C      0.650300000000     0.494300000000     0.205700000000     0          
C535     C      0.620900000000     0.496000000000     0.173300000000     0          
H536     H      0.592500000000     0.494400000000     0.180400000000     0          
O537     O      0.612300000000     0.000500000000     0.560100000000     0          
C538     C      0.636300000000     0.990500000000     0.748500000000     0          
H539     H      0.607700000000     0.989400000000     0.754700000000     0          
C540     C      0.650300000000     0.994300000000     0.705700000000     0          
C541     C      0.620900000000     0.996000000000     0.673300000000     0          
H542     H      0.592500000000     0.994400000000     0.680400000000     0          
C543     C      0.605500000000     0.002000000000     0.838500000000     0          
H544     H      0.595200000000     0.975500000000     0.828400000000     0          
H545     H      0.590600000000     0.023300000000     0.822000000000     0          
C546     C      0.649700000000     0.004000000000     0.820800000000     0          
H547     H      0.653500000000     0.034800000000     0.817500000000     0          
C548     C      0.585100000000     0.006000000000     0.881500000000     0          
H549     H      0.561000000000     0.987400000000     0.883400000000     0          
H550     H      0.575500000000     0.034700000000     0.886200000000     0          
N551     N      0.663800000000     0.988600000000     0.778000000000     0          
O552     O      0.112300000000     0.500500000000     0.560100000000     0          
C553     C      0.136300000000     0.490500000000     0.748500000000     0          
H554     H      0.107700000000     0.489400000000     0.754700000000     0          
C555     C      0.150300000000     0.494300000000     0.705700000000     0          
C556     C      0.120900000000     0.496000000000     0.673300000000     0          
H557     H      0.092500000000     0.494400000000     0.680400000000     0          
C558     C      0.105500000000     0.502000000000     0.838500000000     0          
H559     H      0.095200000000     0.475500000000     0.828400000000     0          
H560     H      0.090600000000     0.523300000000     0.822000000000     0          
C561     C      0.149700000000     0.504000000000     0.820800000000     0          
H562     H      0.153500000000     0.534800000000     0.817500000000     0          
C563     C      0.085100000000     0.506000000000     0.881500000000     0          
H564     H      0.061000000000     0.487400000000     0.883400000000     0          
H565     H      0.075500000000     0.534700000000     0.886200000000     0          
N566     N      0.163800000000     0.488600000000     0.778000000000     0          
O567     O      0.112300000000     0.000500000000     0.060100000000     0          
C568     C      0.150300000000     0.994300000000     0.205700000000     0          
C569     C      0.120900000000     0.996000000000     0.173300000000     0          
H570     H      0.092500000000     0.994400000000     0.180400000000     0          
O571     O      0.387700000000     0.499500000000     0.060100000000     0          
C572     C      0.349700000000     0.505700000000     0.205700000000     0          
C573     C      0.379100000000     0.504000000000     0.173300000000     0          
H574     H      0.407500000000     0.505600000000     0.180400000000     0          
O575     O      0.387700000000     0.999500000000     0.560100000000     0          
C576     C      0.363700000000     0.009500000000     0.748500000000     0          
H577     H      0.392300000000     0.010600000000     0.754700000000     0          
C578     C      0.349700000000     0.005700000000     0.705700000000     0          
C579     C      0.379100000000     0.004000000000     0.673300000000     0          
H580     H      0.407500000000     0.005600000000     0.680400000000     0          
C581     C      0.394500000000     0.998000000000     0.838500000000     0          
H582     H      0.404800000000     0.024500000000     0.828400000000     0          
H583     H      0.409400000000     0.976700000000     0.822000000000     0          
C584     C      0.350300000000     0.996000000000     0.820800000000     0          
H585     H      0.346500000000     0.965200000000     0.817500000000     0          
C586     C      0.414900000000     0.994000000000     0.881500000000     0          
H587     H      0.439000000000     0.012600000000     0.883400000000     0          
H588     H      0.424500000000     0.965300000000     0.886200000000     0          
N589     N      0.336200000000     0.011400000000     0.778000000000     0          
O590     O      0.887700000000     0.499500000000     0.560100000000     0          
C591     C      0.863700000000     0.509500000000     0.748500000000     0          
H592     H      0.892300000000     0.510600000000     0.754700000000     0          
C593     C      0.849700000000     0.505700000000     0.705700000000     0          
C594     C      0.879100000000     0.504000000000     0.673300000000     0          
H595     H      0.907500000000     0.505600000000     0.680400000000     0          
C596     C      0.894500000000     0.498000000000     0.838500000000     0          
H597     H      0.904800000000     0.524500000000     0.828400000000     0          
H598     H      0.909400000000     0.476700000000     0.822000000000     0          
C599     C      0.850300000000     0.496000000000     0.820800000000     0          
H600     H      0.846500000000     0.465200000000     0.817500000000     0          
C601     C      0.914900000000     0.494000000000     0.881500000000     0          
H602     H      0.939000000000     0.512600000000     0.883400000000     0          
H603     H      0.924500000000     0.465300000000     0.886200000000     0          
N604     N      0.836200000000     0.511400000000     0.778000000000     0          
O605     O      0.887700000000     0.999500000000     0.060100000000     0          
C606     C      0.849700000000     0.005700000000     0.205700000000     0          
C607     C      0.879100000000     0.004000000000     0.173300000000     0          
H608     H      0.907500000000     0.005600000000     0.180400000000     0          
O609     O      0.499500000000     0.060100000000     0.387700000000     0          
C610     C      0.505700000000     0.205700000000     0.349700000000     0          
C611     C      0.504000000000     0.173300000000     0.379100000000     0          
H612     H      0.505600000000     0.180400000000     0.407500000000     0          
O613     O      0.499500000000     0.560100000000     0.887700000000     0          
C614     C      0.509500000000     0.748500000000     0.863700000000     0          
H615     H      0.510600000000     0.754700000000     0.892300000000     0          
C616     C      0.505700000000     0.705700000000     0.849700000000     0          
C617     C      0.504000000000     0.673300000000     0.879100000000     0          
H618     H      0.505600000000     0.680400000000     0.907500000000     0          
C619     C      0.498000000000     0.838500000000     0.894500000000     0          
H620     H      0.524500000000     0.828400000000     0.904800000000     0          
H621     H      0.476700000000     0.822000000000     0.909400000000     0          
C622     C      0.496000000000     0.820800000000     0.850300000000     0          
H623     H      0.465200000000     0.817500000000     0.846500000000     0          
C624     C      0.494000000000     0.881500000000     0.914900000000     0          
H625     H      0.512600000000     0.883400000000     0.939000000000     0          
H626     H      0.465300000000     0.886200000000     0.924500000000     0          
N627     N      0.511400000000     0.778000000000     0.836200000000     0          
O628     O      0.999500000000     0.060100000000     0.887700000000     0          
C629     C      0.005700000000     0.205700000000     0.849700000000     0          
C630     C      0.004000000000     0.173300000000     0.879100000000     0          
H631     H      0.005600000000     0.180400000000     0.907500000000     0          
O632     O      0.999500000000     0.560100000000     0.387700000000     0          
C633     C      0.009500000000     0.748500000000     0.363700000000     0          
H634     H      0.010600000000     0.754700000000     0.392300000000     0          
C635     C      0.005700000000     0.705700000000     0.349700000000     0          
C636     C      0.004000000000     0.673300000000     0.379100000000     0          
H637     H      0.005600000000     0.680400000000     0.407500000000     0          
C638     C      0.998000000000     0.838500000000     0.394500000000     0          
H639     H      0.024500000000     0.828400000000     0.404800000000     0          
H640     H      0.976700000000     0.822000000000     0.409400000000     0          
C641     C      0.996000000000     0.820800000000     0.350300000000     0          
H642     H      0.965200000000     0.817500000000     0.346500000000     0          
C643     C      0.994000000000     0.881500000000     0.414900000000     0          
H644     H      0.012600000000     0.883400000000     0.439000000000     0          
H645     H      0.965300000000     0.886200000000     0.424500000000     0          
N646     N      0.011400000000     0.778000000000     0.336200000000     0          
O647     O      0.500500000000     0.060100000000     0.612300000000     0          
C648     C      0.494300000000     0.205700000000     0.650300000000     0          
C649     C      0.496000000000     0.173300000000     0.620900000000     0          
H650     H      0.494400000000     0.180400000000     0.592500000000     0          
O651     O      0.500500000000     0.560100000000     0.112300000000     0          
C652     C      0.490500000000     0.748500000000     0.136300000000     0          
H653     H      0.489400000000     0.754700000000     0.107700000000     0          
C654     C      0.494300000000     0.705700000000     0.150300000000     0          
C655     C      0.496000000000     0.673300000000     0.120900000000     0          
H656     H      0.494400000000     0.680400000000     0.092500000000     0          
C657     C      0.502000000000     0.838500000000     0.105500000000     0          
H658     H      0.475500000000     0.828400000000     0.095200000000     0          
H659     H      0.523300000000     0.822000000000     0.090600000000     0          
C660     C      0.504000000000     0.820800000000     0.149700000000     0          
H661     H      0.534800000000     0.817500000000     0.153500000000     0          
C662     C      0.506000000000     0.881500000000     0.085100000000     0          
H663     H      0.487400000000     0.883400000000     0.061000000000     0          
H664     H      0.534700000000     0.886200000000     0.075500000000     0          
N665     N      0.488600000000     0.778000000000     0.163800000000     0          
O666     O      0.000500000000     0.060100000000     0.112300000000     0          
C667     C      0.994300000000     0.205700000000     0.150300000000     0          
C668     C      0.996000000000     0.173300000000     0.120900000000     0          
H669     H      0.994400000000     0.180400000000     0.092500000000     0          
O670     O      0.000500000000     0.560100000000     0.612300000000     0          
C671     C      0.990500000000     0.748500000000     0.636300000000     0          
H672     H      0.989400000000     0.754700000000     0.607700000000     0          
C673     C      0.994300000000     0.705700000000     0.650300000000     0          
C674     C      0.996000000000     0.673300000000     0.620900000000     0          
H675     H      0.994400000000     0.680400000000     0.592500000000     0          
C676     C      0.002000000000     0.838500000000     0.605500000000     0          
H677     H      0.975500000000     0.828400000000     0.595200000000     0          
H678     H      0.023300000000     0.822000000000     0.590600000000     0          
C679     C      0.004000000000     0.820800000000     0.649700000000     0          
H680     H      0.034800000000     0.817500000000     0.653500000000     0          
C681     C      0.006000000000     0.881500000000     0.585100000000     0          
H682     H      0.987400000000     0.883400000000     0.561000000000     0          
H683     H      0.034700000000     0.886200000000     0.575500000000     0          
N684     N      0.988600000000     0.778000000000     0.663800000000     0          
O685     O      0.500500000000     0.939900000000     0.387700000000     0          
C686     C      0.494300000000     0.794300000000     0.349700000000     0          
C687     C      0.496000000000     0.826700000000     0.379100000000     0          
H688     H      0.494400000000     0.819600000000     0.407500000000     0          
O689     O      0.500500000000     0.439900000000     0.887700000000     0          
C690     C      0.490500000000     0.251500000000     0.863700000000     0          
H691     H      0.489400000000     0.245300000000     0.892300000000     0          
C692     C      0.494300000000     0.294300000000     0.849700000000     0          
C693     C      0.496000000000     0.326700000000     0.879100000000     0          
H694     H      0.494400000000     0.319600000000     0.907500000000     0          
C695     C      0.502000000000     0.161500000000     0.894500000000     0          
H696     H      0.475500000000     0.171600000000     0.904800000000     0          
H697     H      0.523300000000     0.178000000000     0.909400000000     0          
C698     C      0.504000000000     0.179200000000     0.850300000000     0          
H699     H      0.534800000000     0.182500000000     0.846500000000     0          
C700     C      0.506000000000     0.118500000000     0.914900000000     0          
H701     H      0.487400000000     0.116600000000     0.939000000000     0          
H702     H      0.534700000000     0.113800000000     0.924500000000     0          
N703     N      0.488600000000     0.222000000000     0.836200000000     0          
O704     O      0.000500000000     0.939900000000     0.887700000000     0          
C705     C      0.994300000000     0.794300000000     0.849700000000     0          
C706     C      0.996000000000     0.826700000000     0.879100000000     0          
H707     H      0.994400000000     0.819600000000     0.907500000000     0          
O708     O      0.000500000000     0.439900000000     0.387700000000     0          
C709     C      0.990500000000     0.251500000000     0.363700000000     0          
H710     H      0.989400000000     0.245300000000     0.392300000000     0          
C711     C      0.994300000000     0.294300000000     0.349700000000     0          
C712     C      0.996000000000     0.326700000000     0.379100000000     0          
H713     H      0.994400000000     0.319600000000     0.407500000000     0          
C714     C      0.002000000000     0.161500000000     0.394500000000     0          
H715     H      0.975500000000     0.171600000000     0.404800000000     0          
H716     H      0.023300000000     0.178000000000     0.409400000000     0          
C717     C      0.004000000000     0.179200000000     0.350300000000     0          
H718     H      0.034800000000     0.182500000000     0.346500000000     0          
C719     C      0.006000000000     0.118500000000     0.414900000000     0          
H720     H      0.987400000000     0.116600000000     0.439000000000     0          
H721     H      0.034700000000     0.113800000000     0.424500000000     0          
N722     N      0.988600000000     0.222000000000     0.336200000000     0          
O723     O      0.499500000000     0.939900000000     0.612300000000     0          
C724     C      0.505700000000     0.794300000000     0.650300000000     0          
C725     C      0.504000000000     0.826700000000     0.620900000000     0          
H726     H      0.505600000000     0.819600000000     0.592500000000     0          
O727     O      0.499500000000     0.439900000000     0.112300000000     0          
C728     C      0.509500000000     0.251500000000     0.136300000000     0          
H729     H      0.510600000000     0.245300000000     0.107700000000     0          
C730     C      0.505700000000     0.294300000000     0.150300000000     0          
C731     C      0.504000000000     0.326700000000     0.120900000000     0          
H732     H      0.505600000000     0.319600000000     0.092500000000     0          
C733     C      0.498000000000     0.161500000000     0.105500000000     0          
H734     H      0.524500000000     0.171600000000     0.095200000000     0          
H735     H      0.476700000000     0.178000000000     0.090600000000     0          
C736     C      0.496000000000     0.179200000000     0.149700000000     0          
H737     H      0.465200000000     0.182500000000     0.153500000000     0          
C738     C      0.494000000000     0.118500000000     0.085100000000     0          
H739     H      0.512600000000     0.116600000000     0.061000000000     0          
H740     H      0.465300000000     0.113800000000     0.075500000000     0          
N741     N      0.511400000000     0.222000000000     0.163800000000     0          
O742     O      0.999500000000     0.939900000000     0.112300000000     0          
C743     C      0.005700000000     0.794300000000     0.150300000000     0          
C744     C      0.004000000000     0.826700000000     0.120900000000     0          
H745     H      0.005600000000     0.819600000000     0.092500000000     0          
O746     O      0.999500000000     0.439900000000     0.612300000000     0          
C747     C      0.009500000000     0.251500000000     0.636300000000     0          
H748     H      0.010600000000     0.245300000000     0.607700000000     0          
C749     C      0.005700000000     0.294300000000     0.650300000000     0          
C750     C      0.004000000000     0.326700000000     0.620900000000     0          
H751     H      0.005600000000     0.319600000000     0.592500000000     0          
C752     C      0.998000000000     0.161500000000     0.605500000000     0          
H753     H      0.024500000000     0.171600000000     0.595200000000     0          
H754     H      0.976700000000     0.178000000000     0.590600000000     0          
C755     C      0.996000000000     0.179200000000     0.649700000000     0          
H756     H      0.965200000000     0.182500000000     0.653500000000     0          
C757     C      0.994000000000     0.118500000000     0.585100000000     0          
H758     H      0.012600000000     0.116600000000     0.561000000000     0          
H759     H      0.965300000000     0.113800000000     0.575500000000     0          
N760     N      0.011400000000     0.222000000000     0.663800000000     0          
O761     O      0.060100000000     0.612300000000     0.500500000000     0          
C762     C      0.205700000000     0.650300000000     0.494300000000     0          
C763     C      0.173300000000     0.620900000000     0.496000000000     0          
H764     H      0.180400000000     0.592500000000     0.494400000000     0          
O765     O      0.060100000000     0.112300000000     0.000500000000     0          
C766     C      0.248500000000     0.136300000000     0.990500000000     0          
H767     H      0.254700000000     0.107700000000     0.989400000000     0          
C768     C      0.205700000000     0.150300000000     0.994300000000     0          
C769     C      0.173300000000     0.120900000000     0.996000000000     0          
H770     H      0.180400000000     0.092500000000     0.994400000000     0          
C771     C      0.338500000000     0.105500000000     0.002000000000     0          
H772     H      0.328400000000     0.095200000000     0.975500000000     0          
H773     H      0.322000000000     0.090600000000     0.023300000000     0          
C774     C      0.320800000000     0.149700000000     0.004000000000     0          
H775     H      0.317500000000     0.153500000000     0.034800000000     0          
C776     C      0.381500000000     0.085100000000     0.006000000000     0          
H777     H      0.383400000000     0.061000000000     0.987400000000     0          
H778     H      0.386200000000     0.075500000000     0.034700000000     0          
N779     N      0.278000000000     0.163800000000     0.988600000000     0          
O780     O      0.560100000000     0.612300000000     0.000500000000     0          
C781     C      0.705700000000     0.650300000000     0.994300000000     0          
C782     C      0.673300000000     0.620900000000     0.996000000000     0          
H783     H      0.680400000000     0.592500000000     0.994400000000     0          
O784     O      0.560100000000     0.112300000000     0.500500000000     0          
C785     C      0.748500000000     0.136300000000     0.490500000000     0          
H786     H      0.754700000000     0.107700000000     0.489400000000     0          
C787     C      0.705700000000     0.150300000000     0.494300000000     0          
C788     C      0.673300000000     0.120900000000     0.496000000000     0          
H789     H      0.680400000000     0.092500000000     0.494400000000     0          
C790     C      0.838500000000     0.105500000000     0.502000000000     0          
H791     H      0.828400000000     0.095200000000     0.475500000000     0          
H792     H      0.822000000000     0.090600000000     0.523300000000     0          
C793     C      0.820800000000     0.149700000000     0.504000000000     0          
H794     H      0.817500000000     0.153500000000     0.534800000000     0          
C795     C      0.881500000000     0.085100000000     0.506000000000     0          
H796     H      0.883400000000     0.061000000000     0.487400000000     0          
H797     H      0.886200000000     0.075500000000     0.534700000000     0          
N798     N      0.778000000000     0.163800000000     0.488600000000     0          
O799     O      0.060100000000     0.387700000000     0.499500000000     0          
C800     C      0.205700000000     0.349700000000     0.505700000000     0          
C801     C      0.173300000000     0.379100000000     0.504000000000     0          
H802     H      0.180400000000     0.407500000000     0.505600000000     0          
O803     O      0.060100000000     0.887700000000     0.999500000000     0          
C804     C      0.248500000000     0.863700000000     0.009500000000     0          
H805     H      0.254700000000     0.892300000000     0.010600000000     0          
C806     C      0.205700000000     0.849700000000     0.005700000000     0          
C807     C      0.173300000000     0.879100000000     0.004000000000     0          
H808     H      0.180400000000     0.907500000000     0.005600000000     0          
C809     C      0.338500000000     0.894500000000     0.998000000000     0          
H810     H      0.328400000000     0.904800000000     0.024500000000     0          
H811     H      0.322000000000     0.909400000000     0.976700000000     0          
C812     C      0.320800000000     0.850300000000     0.996000000000     0          
H813     H      0.317500000000     0.846500000000     0.965200000000     0          
C814     C      0.381500000000     0.914900000000     0.994000000000     0          
H815     H      0.383400000000     0.939000000000     0.012600000000     0          
H816     H      0.386200000000     0.924500000000     0.965300000000     0          
N817     N      0.278000000000     0.836200000000     0.011400000000     0          
O818     O      0.560100000000     0.387700000000     0.999500000000     0          
C819     C      0.705700000000     0.349700000000     0.005700000000     0          
C820     C      0.673300000000     0.379100000000     0.004000000000     0          
H821     H      0.680400000000     0.407500000000     0.005600000000     0          
O822     O      0.560100000000     0.887700000000     0.499500000000     0          
C823     C      0.748500000000     0.863700000000     0.509500000000     0          
H824     H      0.754700000000     0.892300000000     0.510600000000     0          
C825     C      0.705700000000     0.849700000000     0.505700000000     0          
C826     C      0.673300000000     0.879100000000     0.504000000000     0          
H827     H      0.680400000000     0.907500000000     0.505600000000     0          
C828     C      0.838500000000     0.894500000000     0.498000000000     0          
H829     H      0.828400000000     0.904800000000     0.524500000000     0          
H830     H      0.822000000000     0.909400000000     0.476700000000     0          
C831     C      0.820800000000     0.850300000000     0.496000000000     0          
H832     H      0.817500000000     0.846500000000     0.465200000000     0          
C833     C      0.881500000000     0.914900000000     0.494000000000     0          
H834     H      0.883400000000     0.939000000000     0.512600000000     0          
H835     H      0.886200000000     0.924500000000     0.465300000000     0          
N836     N      0.778000000000     0.836200000000     0.511400000000     0          
O837     O      0.939900000000     0.612300000000     0.499500000000     0          
C838     C      0.794300000000     0.650300000000     0.505700000000     0          
C839     C      0.826700000000     0.620900000000     0.504000000000     0          
H840     H      0.819600000000     0.592500000000     0.505600000000     0          
O841     O      0.939900000000     0.112300000000     0.999500000000     0          
C842     C      0.751500000000     0.136300000000     0.009500000000     0          
H843     H      0.745300000000     0.107700000000     0.010600000000     0          
C844     C      0.794300000000     0.150300000000     0.005700000000     0          
C845     C      0.826700000000     0.120900000000     0.004000000000     0          
H846     H      0.819600000000     0.092500000000     0.005600000000     0          
C847     C      0.661500000000     0.105500000000     0.998000000000     0          
H848     H      0.671600000000     0.095200000000     0.024500000000     0          
H849     H      0.678000000000     0.090600000000     0.976700000000     0          
C850     C      0.679200000000     0.149700000000     0.996000000000     0          
H851     H      0.682500000000     0.153500000000     0.965200000000     0          
C852     C      0.618500000000     0.085100000000     0.994000000000     0          
H853     H      0.616600000000     0.061000000000     0.012600000000     0          
H854     H      0.613800000000     0.075500000000     0.965300000000     0          
N855     N      0.722000000000     0.163800000000     0.011400000000     0          
O856     O      0.439900000000     0.612300000000     0.999500000000     0          
C857     C      0.294300000000     0.650300000000     0.005700000000     0          
C858     C      0.326700000000     0.620900000000     0.004000000000     0          
H859     H      0.319600000000     0.592500000000     0.005600000000     0          
O860     O      0.439900000000     0.112300000000     0.499500000000     0          
C861     C      0.251500000000     0.136300000000     0.509500000000     0          
H862     H      0.245300000000     0.107700000000     0.510600000000     0          
C863     C      0.294300000000     0.150300000000     0.505700000000     0          
C864     C      0.326700000000     0.120900000000     0.504000000000     0          
H865     H      0.319600000000     0.092500000000     0.505600000000     0          
C866     C      0.161500000000     0.105500000000     0.498000000000     0          
H867     H      0.171600000000     0.095200000000     0.524500000000     0          
H868     H      0.178000000000     0.090600000000     0.476700000000     0          
C869     C      0.179200000000     0.149700000000     0.496000000000     0          
H870     H      0.182500000000     0.153500000000     0.465200000000     0          
C871     C      0.118500000000     0.085100000000     0.494000000000     0          
H872     H      0.116600000000     0.061000000000     0.512600000000     0          
H873     H      0.113800000000     0.075500000000     0.465300000000     0          
N874     N      0.222000000000     0.163800000000     0.511400000000     0          
O875     O      0.939900000000     0.387700000000     0.500500000000     0          
C876     C      0.794300000000     0.349700000000     0.494300000000     0          
C877     C      0.826700000000     0.379100000000     0.496000000000     0          
H878     H      0.819600000000     0.407500000000     0.494400000000     0          
O879     O      0.939900000000     0.887700000000     0.000500000000     0          
C880     C      0.751500000000     0.863700000000     0.990500000000     0          
H881     H      0.745300000000     0.892300000000     0.989400000000     0          
C882     C      0.794300000000     0.849700000000     0.994300000000     0          
C883     C      0.826700000000     0.879100000000     0.996000000000     0          
H884     H      0.819600000000     0.907500000000     0.994400000000     0          
C885     C      0.661500000000     0.894500000000     0.002000000000     0          
H886     H      0.671600000000     0.904800000000     0.975500000000     0          
H887     H      0.678000000000     0.909400000000     0.023300000000     0          
C888     C      0.679200000000     0.850300000000     0.004000000000     0          
H889     H      0.682500000000     0.846500000000     0.034800000000     0          
C890     C      0.618500000000     0.914900000000     0.006000000000     0          
H891     H      0.616600000000     0.939000000000     0.987400000000     0          
H892     H      0.613800000000     0.924500000000     0.034700000000     0          
N893     N      0.722000000000     0.836200000000     0.988600000000     0          
O894     O      0.439900000000     0.387700000000     0.000500000000     0          
C895     C      0.294300000000     0.349700000000     0.994300000000     0          
C896     C      0.326700000000     0.379100000000     0.996000000000     0          
H897     H      0.319600000000     0.407500000000     0.994400000000     0          
O898     O      0.439900000000     0.887700000000     0.500500000000     0          
C899     C      0.251500000000     0.863700000000     0.490500000000     0          
H900     H      0.245300000000     0.892300000000     0.489400000000     0          
C901     C      0.294300000000     0.849700000000     0.494300000000     0          
C902     C      0.326700000000     0.879100000000     0.496000000000     0          
H903     H      0.319600000000     0.907500000000     0.494400000000     0          
C904     C      0.161500000000     0.894500000000     0.502000000000     0          
H905     H      0.171600000000     0.904800000000     0.475500000000     0          
H906     H      0.178000000000     0.909400000000     0.523300000000     0          
C907     C      0.179200000000     0.850300000000     0.504000000000     0          
H908     H      0.182500000000     0.846500000000     0.534800000000     0          
C909     C      0.118500000000     0.914900000000     0.506000000000     0          
H910     H      0.116600000000     0.939000000000     0.487400000000     0          
H911     H      0.113800000000     0.924500000000     0.534700000000     0          
N912     N      0.222000000000     0.836200000000     0.488600000000     0          
Zr913    Zr     0.500000000000     0.578140000000     0.000000000000     0          
Zr914    Zr     0.500000000000     0.078140000000     0.500000000000     0          
Zr915    Zr     0.500000000000     0.421860000000     0.000000000000     0          
Zr916    Zr     0.500000000000     0.921860000000     0.500000000000     0          
Zr917    Zr     0.000000000000     0.421860000000     0.500000000000     0          
Zr918    Zr     0.000000000000     0.078140000000     0.000000000000     0          
Zr919    Zr     0.000000000000     0.500000000000     0.578140000000     0          
Zr920    Zr     0.000000000000     0.000000000000     0.078140000000     0          
Zr921    Zr     0.000000000000     0.500000000000     0.421860000000     0          
Zr922    Zr     0.000000000000     0.000000000000     0.921860000000     0          
Zr923    Zr     0.500000000000     0.000000000000     0.421860000000     0          
Zr924    Zr     0.500000000000     0.500000000000     0.921860000000     0          
Zr925    Zr     0.578140000000     0.000000000000     0.500000000000     0          
Zr926    Zr     0.078140000000     0.000000000000     0.000000000000     0          
Zr927    Zr     0.078140000000     0.500000000000     0.500000000000     0          
Zr928    Zr     0.421860000000     0.000000000000     0.500000000000     0          
Zr929    Zr     0.921860000000     0.000000000000     0.000000000000     0          
Zr930    Zr     0.578140000000     0.500000000000     0.000000000000     0          
Zr931    Zr     0.421860000000     0.500000000000     0.000000000000     0          
Zr932    Zr     0.921860000000     0.500000000000     0.500000000000     0          
Zr933    Zr     0.500000000000     0.000000000000     0.578140000000     0          
Zr934    Zr     0.500000000000     0.500000000000     0.078140000000     0          
Zr935    Zr     0.000000000000     0.578140000000     0.500000000000     0          
Zr936    Zr     0.000000000000     0.921860000000     0.000000000000     0          
O937     O      0.537300000000     0.537300000000     0.037300000000     0          
O938     O      0.462700000000     0.462700000000     0.037300000000     0          
O939     O      0.462700000000     0.962700000000     0.537300000000     0          
O940     O      0.962700000000     0.462700000000     0.537300000000     0          
O941     O      0.462700000000     0.537300000000     0.962700000000     0          
O942     O      0.962700000000     0.037300000000     0.962700000000     0          
O943     O      0.537300000000     0.462700000000     0.962700000000     0          
O944     O      0.037300000000     0.537300000000     0.537300000000     0          
O945     O      0.037300000000     0.037300000000     0.037300000000     0          
O946     O      0.037300000000     0.462700000000     0.462700000000     0          
O947     O      0.037300000000     0.962700000000     0.962700000000     0          
O948     O      0.537300000000     0.962700000000     0.462700000000     0          
O949     O      0.962700000000     0.962700000000     0.037300000000     0          
O950     O      0.962700000000     0.537300000000     0.462700000000     0          
O951     O      0.537300000000     0.037300000000     0.537300000000     0          
O952     O      0.462700000000     0.037300000000     0.462700000000     0          
O953     O      0.537300000000     0.537300000000     0.962700000000     0          
O954     O      0.462700000000     0.462700000000     0.962700000000     0          
O955     O      0.962700000000     0.962700000000     0.962700000000     0          
O956     O      0.537300000000     0.462700000000     0.037300000000     0          
O957     O      0.537300000000     0.962700000000     0.537300000000     0          
O958     O      0.462700000000     0.537300000000     0.037300000000     0          
O959     O      0.962700000000     0.537300000000     0.537300000000     0          
O960     O      0.537300000000     0.037300000000     0.462700000000     0          
O961     O      0.462700000000     0.037300000000     0.537300000000     0          
O962     O      0.462700000000     0.962700000000     0.462700000000     0          
O963     O      0.037300000000     0.537300000000     0.462700000000     0          
O964     O      0.037300000000     0.037300000000     0.962700000000     0          
O965     O      0.037300000000     0.462700000000     0.537300000000     0          
O966     O      0.037300000000     0.962700000000     0.037300000000     0          
O967     O      0.962700000000     0.037300000000     0.037300000000     0          
O968     O      0.962700000000     0.462700000000     0.462700000000     0          
C969     C      0.500000000000     0.598500000000     0.098500000000     0          
C970     C      0.500000000000     0.631100000000     0.131100000000     0          
O971     O      0.500000000000     0.721000000000     0.221000000000     0          
C972     C      0.500000000000     0.691100000000     0.191100000000     0          
C973     C      0.000000000000     0.598500000000     0.598500000000     0          
C974     C      0.000000000000     0.631100000000     0.631100000000     0          
O975     O      0.000000000000     0.721000000000     0.721000000000     0          
C976     C      0.000000000000     0.691100000000     0.691100000000     0          
C977     C      0.500000000000     0.401500000000     0.098500000000     0          
C978     C      0.500000000000     0.368900000000     0.131100000000     0          
O979     O      0.500000000000     0.279000000000     0.221000000000     0          
C980     C      0.500000000000     0.308900000000     0.191100000000     0          
C981     C      0.000000000000     0.401500000000     0.598500000000     0          
C982     C      0.000000000000     0.368900000000     0.631100000000     0          
O983     O      0.000000000000     0.279000000000     0.721000000000     0          
C984     C      0.000000000000     0.308900000000     0.691100000000     0          
C985     C      0.500000000000     0.598500000000     0.901500000000     0          
C986     C      0.500000000000     0.631100000000     0.868900000000     0          
O987     O      0.500000000000     0.721000000000     0.779000000000     0          
C988     C      0.500000000000     0.691100000000     0.808900000000     0          
C989     C      0.000000000000     0.598500000000     0.401500000000     0          
C990     C      0.000000000000     0.631100000000     0.368900000000     0          
O991     O      0.000000000000     0.721000000000     0.279000000000     0          
C992     C      0.000000000000     0.691100000000     0.308900000000     0          
C993     C      0.500000000000     0.401500000000     0.901500000000     0          
C994     C      0.500000000000     0.368900000000     0.868900000000     0          
O995     O      0.500000000000     0.279000000000     0.779000000000     0          
C996     C      0.500000000000     0.308900000000     0.808900000000     0          
C997     C      0.000000000000     0.401500000000     0.401500000000     0          
C998     C      0.000000000000     0.368900000000     0.368900000000     0          
O999     O      0.000000000000     0.279000000000     0.279000000000     0          
C1000    C      0.000000000000     0.308900000000     0.308900000000     0          
C1001    C      0.098500000000     0.500000000000     0.598500000000     0          
C1002    C      0.131100000000     0.500000000000     0.631100000000     0          
O1003    O      0.221000000000     0.500000000000     0.721000000000     0          
C1004    C      0.191100000000     0.500000000000     0.691100000000     0          
C1005    C      0.098500000000     0.000000000000     0.098500000000     0          
C1006    C      0.131100000000     0.000000000000     0.131100000000     0          
O1007    O      0.221000000000     0.000000000000     0.221000000000     0          
C1008    C      0.191100000000     0.000000000000     0.191100000000     0          
C1009    C      0.098500000000     0.500000000000     0.401500000000     0          
C1010    C      0.131100000000     0.500000000000     0.368900000000     0          
O1011    O      0.221000000000     0.500000000000     0.279000000000     0          
C1012    C      0.191100000000     0.500000000000     0.308900000000     0          
C1013    C      0.098500000000     0.000000000000     0.901500000000     0          
C1014    C      0.131100000000     0.000000000000     0.868900000000     0          
O1015    O      0.221000000000     0.000000000000     0.779000000000     0          
C1016    C      0.191100000000     0.000000000000     0.808900000000     0          
C1017    C      0.901500000000     0.500000000000     0.598500000000     0          
C1018    C      0.868900000000     0.500000000000     0.631100000000     0          
O1019    O      0.779000000000     0.500000000000     0.721000000000     0          
C1020    C      0.808900000000     0.500000000000     0.691100000000     0          
C1021    C      0.901500000000     0.000000000000     0.098500000000     0          
C1022    C      0.868900000000     0.000000000000     0.131100000000     0          
O1023    O      0.779000000000     0.000000000000     0.221000000000     0          
C1024    C      0.808900000000     0.000000000000     0.191100000000     0          
C1025    C      0.901500000000     0.500000000000     0.401500000000     0          
C1026    C      0.868900000000     0.500000000000     0.368900000000     0          
O1027    O      0.779000000000     0.500000000000     0.279000000000     0          
C1028    C      0.808900000000     0.500000000000     0.308900000000     0          
C1029    C      0.901500000000     0.000000000000     0.901500000000     0          
C1030    C      0.868900000000     0.000000000000     0.868900000000     0          
O1031    O      0.779000000000     0.000000000000     0.779000000000     0          
C1032    C      0.808900000000     0.000000000000     0.808900000000     0          
C1033    C      0.598500000000     0.098500000000     0.500000000000     0          
C1034    C      0.631100000000     0.131100000000     0.500000000000     0          
O1035    O      0.721000000000     0.221000000000     0.500000000000     0          
C1036    C      0.691100000000     0.191100000000     0.500000000000     0          
C1037    C      0.598500000000     0.598500000000     0.000000000000     0          
C1038    C      0.631100000000     0.631100000000     0.000000000000     0          
O1039    O      0.721000000000     0.721000000000     0.000000000000     0          
C1040    C      0.691100000000     0.691100000000     0.000000000000     0          
C1041    C      0.401500000000     0.098500000000     0.500000000000     0          
C1042    C      0.368900000000     0.131100000000     0.500000000000     0          
O1043    O      0.279000000000     0.221000000000     0.500000000000     0          
C1044    C      0.308900000000     0.191100000000     0.500000000000     0          
C1045    C      0.401500000000     0.598500000000     0.000000000000     0          
C1046    C      0.368900000000     0.631100000000     0.000000000000     0          
O1047    O      0.279000000000     0.721000000000     0.000000000000     0          
C1048    C      0.308900000000     0.691100000000     0.000000000000     0          
C1049    C      0.598500000000     0.901500000000     0.500000000000     0          
C1050    C      0.631100000000     0.868900000000     0.500000000000     0          
O1051    O      0.721000000000     0.779000000000     0.500000000000     0          
C1052    C      0.691100000000     0.808900000000     0.500000000000     0          
C1053    C      0.598500000000     0.401500000000     0.000000000000     0          
C1054    C      0.631100000000     0.368900000000     0.000000000000     0          
O1055    O      0.721000000000     0.279000000000     0.000000000000     0          
C1056    C      0.691100000000     0.308900000000     0.000000000000     0          
C1057    C      0.401500000000     0.901500000000     0.500000000000     0          
C1058    C      0.368900000000     0.868900000000     0.500000000000     0          
O1059    O      0.279000000000     0.779000000000     0.500000000000     0          
C1060    C      0.308900000000     0.808900000000     0.500000000000     0          
C1061    C      0.401500000000     0.401500000000     0.000000000000     0          
C1062    C      0.368900000000     0.368900000000     0.000000000000     0          
O1063    O      0.279000000000     0.279000000000     0.000000000000     0          
C1064    C      0.308900000000     0.308900000000     0.000000000000     0          
C1065    C      0.598500000000     0.500000000000     0.901500000000     0          
C1066    C      0.631100000000     0.500000000000     0.868900000000     0          
O1067    O      0.721000000000     0.500000000000     0.779000000000     0          
C1068    C      0.691100000000     0.500000000000     0.808900000000     0          
C1069    C      0.598500000000     0.000000000000     0.401500000000     0          
C1070    C      0.631100000000     0.000000000000     0.368900000000     0          
O1071    O      0.721000000000     0.000000000000     0.279000000000     0          
C1072    C      0.691100000000     0.000000000000     0.308900000000     0          
C1073    C      0.401500000000     0.500000000000     0.901500000000     0          
C1074    C      0.368900000000     0.500000000000     0.868900000000     0          
O1075    O      0.279000000000     0.500000000000     0.779000000000     0          
C1076    C      0.308900000000     0.500000000000     0.808900000000     0          
C1077    C      0.401500000000     0.000000000000     0.401500000000     0          
C1078    C      0.368900000000     0.000000000000     0.368900000000     0          
O1079    O      0.279000000000     0.000000000000     0.279000000000     0          
C1080    C      0.308900000000     0.000000000000     0.308900000000     0          
C1081    C      0.598500000000     0.500000000000     0.098500000000     0          
C1082    C      0.631100000000     0.500000000000     0.131100000000     0          
O1083    O      0.721000000000     0.500000000000     0.221000000000     0          
C1084    C      0.691100000000     0.500000000000     0.191100000000     0          
C1085    C      0.598500000000     0.000000000000     0.598500000000     0          
C1086    C      0.631100000000     0.000000000000     0.631100000000     0          
O1087    O      0.721000000000     0.000000000000     0.721000000000     0          
C1088    C      0.691100000000     0.000000000000     0.691100000000     0          
C1089    C      0.401500000000     0.500000000000     0.098500000000     0          
C1090    C      0.368900000000     0.500000000000     0.131100000000     0          
O1091    O      0.279000000000     0.500000000000     0.221000000000     0          
C1092    C      0.308900000000     0.500000000000     0.191100000000     0          
C1093    C      0.401500000000     0.000000000000     0.598500000000     0          
C1094    C      0.368900000000     0.000000000000     0.631100000000     0          
O1095    O      0.279000000000     0.000000000000     0.721000000000     0          
C1096    C      0.308900000000     0.000000000000     0.691100000000     0          
C1097    C      0.500000000000     0.098500000000     0.401500000000     0          
C1098    C      0.500000000000     0.131100000000     0.368900000000     0          
O1099    O      0.500000000000     0.221000000000     0.279000000000     0          
C1100    C      0.500000000000     0.191100000000     0.308900000000     0          
C1101    C      0.000000000000     0.098500000000     0.901500000000     0          
C1102    C      0.000000000000     0.131100000000     0.868900000000     0          
O1103    O      0.000000000000     0.221000000000     0.779000000000     0          
C1104    C      0.000000000000     0.191100000000     0.808900000000     0          
C1105    C      0.500000000000     0.098500000000     0.598500000000     0          
C1106    C      0.500000000000     0.131100000000     0.631100000000     0          
O1107    O      0.500000000000     0.221000000000     0.721000000000     0          
C1108    C      0.500000000000     0.191100000000     0.691100000000     0          
C1109    C      0.000000000000     0.098500000000     0.098500000000     0          
C1110    C      0.000000000000     0.131100000000     0.131100000000     0          
O1111    O      0.000000000000     0.221000000000     0.221000000000     0          
C1112    C      0.000000000000     0.191100000000     0.191100000000     0          
C1113    C      0.500000000000     0.901500000000     0.401500000000     0          
C1114    C      0.500000000000     0.868900000000     0.368900000000     0          
O1115    O      0.500000000000     0.779000000000     0.279000000000     0          
C1116    C      0.500000000000     0.808900000000     0.308900000000     0          
C1117    C      0.000000000000     0.901500000000     0.901500000000     0          
C1118    C      0.000000000000     0.868900000000     0.868900000000     0          
O1119    O      0.000000000000     0.779000000000     0.779000000000     0          
C1120    C      0.000000000000     0.808900000000     0.808900000000     0          
C1121    C      0.500000000000     0.901500000000     0.598500000000     0          
C1122    C      0.500000000000     0.868900000000     0.631100000000     0          
O1123    O      0.500000000000     0.779000000000     0.721000000000     0          
C1124    C      0.500000000000     0.808900000000     0.691100000000     0          
C1125    C      0.000000000000     0.901500000000     0.098500000000     0          
C1126    C      0.000000000000     0.868900000000     0.131100000000     0          
O1127    O      0.000000000000     0.779000000000     0.221000000000     0          
C1128    C      0.000000000000     0.808900000000     0.191100000000     0          
C1129    C      0.098500000000     0.598500000000     0.500000000000     0          
C1130    C      0.131100000000     0.631100000000     0.500000000000     0          
O1131    O      0.221000000000     0.721000000000     0.500000000000     0          
C1132    C      0.191100000000     0.691100000000     0.500000000000     0          
C1133    C      0.098500000000     0.098500000000     0.000000000000     0          
C1134    C      0.131100000000     0.131100000000     0.000000000000     0          
O1135    O      0.221000000000     0.221000000000     0.000000000000     0          
C1136    C      0.191100000000     0.191100000000     0.000000000000     0          
C1137    C      0.098500000000     0.401500000000     0.500000000000     0          
C1138    C      0.131100000000     0.368900000000     0.500000000000     0          
O1139    O      0.221000000000     0.279000000000     0.500000000000     0          
C1140    C      0.191100000000     0.308900000000     0.500000000000     0          
C1141    C      0.098500000000     0.901500000000     0.000000000000     0          
C1142    C      0.131100000000     0.868900000000     0.000000000000     0          
O1143    O      0.221000000000     0.779000000000     0.000000000000     0          
C1144    C      0.191100000000     0.808900000000     0.000000000000     0          
C1145    C      0.901500000000     0.598500000000     0.500000000000     0          
C1146    C      0.868900000000     0.631100000000     0.500000000000     0          
O1147    O      0.779000000000     0.721000000000     0.500000000000     0          
C1148    C      0.808900000000     0.691100000000     0.500000000000     0          
C1149    C      0.901500000000     0.098500000000     0.000000000000     0          
C1150    C      0.868900000000     0.131100000000     0.000000000000     0          
O1151    O      0.779000000000     0.221000000000     0.000000000000     0          
C1152    C      0.808900000000     0.191100000000     0.000000000000     0          
C1153    C      0.901500000000     0.401500000000     0.500000000000     0          
C1154    C      0.868900000000     0.368900000000     0.500000000000     0          
O1155    O      0.779000000000     0.279000000000     0.500000000000     0          
C1156    C      0.808900000000     0.308900000000     0.500000000000     0          
C1157    C      0.901500000000     0.901500000000     0.000000000000     0          
C1158    C      0.868900000000     0.868900000000     0.000000000000     0          
O1159    O      0.779000000000     0.779000000000     0.000000000000     0          
C1160    C      0.808900000000     0.808900000000     0.000000000000     0          
Ni1161   Ni     0.500000000000     0.224700000000     0.775300000000     0          
Ni1162   Ni     0.000000000000     0.224700000000     0.275300000000     0          
Ni1163   Ni     0.500000000000     0.775300000000     0.775300000000     0          
Ni1164   Ni     0.000000000000     0.775300000000     0.275300000000     0          
Ni1165   Ni     0.500000000000     0.224700000000     0.224700000000     0          
Ni1166   Ni     0.000000000000     0.224700000000     0.724700000000     0          
Ni1167   Ni     0.500000000000     0.775300000000     0.224700000000     0          
Ni1168   Ni     0.000000000000     0.775300000000     0.724700000000     0          
Ni1169   Ni     0.275300000000     0.000000000000     0.224700000000     0          
Ni1170   Ni     0.775300000000     0.500000000000     0.224700000000     0          
Ni1171   Ni     0.275300000000     0.000000000000     0.775300000000     0          
Ni1172   Ni     0.775300000000     0.500000000000     0.775300000000     0          
Ni1173   Ni     0.724700000000     0.000000000000     0.224700000000     0          
Ni1174   Ni     0.224700000000     0.500000000000     0.224700000000     0          
Ni1175   Ni     0.724700000000     0.000000000000     0.775300000000     0          
Ni1176   Ni     0.224700000000     0.500000000000     0.775300000000     0          
Ni1177   Ni     0.724700000000     0.775300000000     0.000000000000     0          
Ni1178   Ni     0.224700000000     0.775300000000     0.500000000000     0          
Ni1179   Ni     0.275300000000     0.775300000000     0.000000000000     0          
Ni1180   Ni     0.775300000000     0.775300000000     0.500000000000     0          
Ni1181   Ni     0.724700000000     0.224700000000     0.000000000000     0          
Ni1182   Ni     0.224700000000     0.224700000000     0.500000000000     0          
Ni1183   Ni     0.275300000000     0.224700000000     0.000000000000     0          
Ni1184   Ni     0.775300000000     0.224700000000     0.500000000000     0          


