data_VIKROZ

_audit_creation_method RASPA-1.0
_audit_creation_date 2020-11-2
_audit_author_name 'Rocio Bueno-Perez'

_cell_length_a    32.763
_cell_length_b    32.763
_cell_length_c    32.763
_cell_angle_alpha 90
_cell_angle_beta  90
_cell_angle_gamma 90
_cell_volume      35168.3

_symmetry_cell_setting          triclinic
_symmetry_space_group_name_Hall 'P 1'
_symmetry_space_group_name_H-M  'P 1'
_symmetry_Int_Tables_number     1

_symmetry_equiv_pos_as_xyz 'x,y,z'

loop_
_atom_site_label
_atom_site_type_symbol
_atom_site_fract_x
_atom_site_fract_y
_atom_site_fract_z
_atom_site_charge
Zr1      Zr     0.321390000000     0.793550000000     0.764810000000     0          
Zr2      Zr     0.223520000000     0.780390000000     0.804900000000     0          
O3       O      0.261880000000     0.828300000000     0.770620000000     0          
O4       O      0.281800000000     0.756610000000     0.793450000000     0          
O5       O      0.571100000000     0.580930000000     0.930300000000     0          
O6       O      0.506500000000     0.601700000000     0.934100000000     0          
O7       O      0.726800000000     0.757900000000     0.139800000000     0          
O8       O      0.761300000000     0.812500000000     0.158500000000     0          
O9       O      0.187300000000     0.837300000000     0.817200000000     0          
H10      H      0.166000000000     0.838000000000     0.801700000000     0          
H11      H      0.201200000000     0.858600000000     0.809800000000     0          
O12      O      0.376100000000     0.773300000000     0.793900000000     0          
O13      O      0.342000000000     0.859000000000     0.759300000000     0          
C14      C      0.737100000000     0.807500000000     0.091800000000     0          
C15      C      0.741600000000     0.848200000000     0.085500000000     0          
H16      H      0.752500000000     0.864800000000     0.105800000000     0          
O17      O      0.375200000000     0.802000000000     0.718600000000     0          
C18      C      0.552400000000     0.649700000000     0.919400000000     0          
C19      C      0.543200000000     0.608600000000     0.929500000000     0          
C20      C      0.675000000000     0.840100000000     0.959200000000     0          
H21      H      0.663600000000     0.817200000000     0.971500000000     0          
C22      C      0.720400000000     0.797800000000     0.020300000000     0          
H23      H      0.714000000000     0.780400000000     0.998900000000     0          
C24      C      0.721900000000     0.838900000000     0.014000000000     0          
C25      C      0.705700000000     0.858200000000     0.974900000000     0          
C26      C      0.741200000000     0.791100000000     0.131700000000     0          
C27      C      0.444200000000     0.762600000000     0.807000000000     0          
O28      O      0.407200000000     0.719600000000     0.754400000000     0          
C29      C      0.728300000000     0.781900000000     0.059200000000     0          
H30      H      0.727800000000     0.753800000000     0.063200000000     0          
C31      C      0.531200000000     0.718400000000     0.912900000000     0          
H32      H      0.511300000000     0.738100000000     0.917200000000     0          
C33      C      0.729200000000     0.865400000000     0.046800000000     0          
H34      H      0.726100000000     0.893500000000     0.043700000000     0          
C35      C      0.594500000000     0.659900000000     0.910300000000     0          
H36      H      0.615200000000     0.640500000000     0.911200000000     0          
C37      C      0.522900000000     0.680700000000     0.920800000000     0          
H38      H      0.496300000000     0.673800000000     0.927700000000     0          
C39      C      0.613100000000     0.790900000000     0.910600000000     0          
H40      H      0.627800000000     0.776400000000     0.930100000000     0          
C41      C      0.516500000000     0.785500000000     0.843500000000     0          
C42      C      0.567400000000     0.839000000000     0.845900000000     0          
H43      H      0.553200000000     0.852000000000     0.825000000000     0          
C44      C      0.556000000000     0.801100000000     0.861400000000     0          
C45      C      0.657800000000     0.857200000000     0.919900000000     0          
C46      C      0.570400000000     0.730600000000     0.897700000000     0          
C47      C      0.622300000000     0.836900000000     0.898500000000     0          
C48      C      0.602400000000     0.700800000000     0.900300000000     0          
H49      H      0.629100000000     0.708800000000     0.895100000000     0          
C50      C      0.481300000000     0.805400000000     0.849400000000     0          
H51      H      0.482500000000     0.827200000000     0.867600000000     0          
C52      C      0.578700000000     0.773800000000     0.887400000000     0          
C53      C      0.443000000000     0.797900000000     0.832000000000     0          
H54      H      0.419900000000     0.813900000000     0.836300000000     0          
C55      C      0.478800000000     0.737400000000     0.802700000000     0          
H56      H      0.477100000000     0.712600000000     0.788900000000     0          
C57      C      0.517600000000     0.751200000000     0.820700000000     0          
H58      H      0.541700000000     0.736900000000     0.816500000000     0          
C59      C      0.601500000000     0.855600000000     0.864200000000     0          
C60      C      0.404500000000     0.749100000000     0.788700000000     0          
Zr61     Zr     0.178610000000     0.206450000000     0.264810000000     0          
Zr62     Zr     0.276480000000     0.219610000000     0.304900000000     0          
O63      O      0.238120000000     0.171700000000     0.270620000000     0          
O64      O      0.218200000000     0.243390000000     0.293450000000     0          
O65      O      0.928900000000     0.419070000000     0.430300000000     0          
O66      O      0.993500000000     0.398300000000     0.434100000000     0          
O67      O      0.773200000000     0.242100000000     0.639800000000     0          
O68      O      0.738700000000     0.187500000000     0.658500000000     0          
O69      O      0.312700000000     0.162700000000     0.317200000000     0          
H70      H      0.334000000000     0.162000000000     0.301700000000     0          
H71      H      0.298800000000     0.141400000000     0.309800000000     0          
O72      O      0.123900000000     0.226700000000     0.293900000000     0          
O73      O      0.158000000000     0.141000000000     0.259300000000     0          
C74      C      0.762900000000     0.192500000000     0.591800000000     0          
C75      C      0.758400000000     0.151800000000     0.585500000000     0          
H76      H      0.747500000000     0.135200000000     0.605800000000     0          
O77      O      0.124800000000     0.198000000000     0.218600000000     0          
C78      C      0.947600000000     0.350300000000     0.419400000000     0          
C79      C      0.956800000000     0.391400000000     0.429500000000     0          
C80      C      0.825000000000     0.159900000000     0.459200000000     0          
H81      H      0.836400000000     0.182800000000     0.471500000000     0          
C82      C      0.779600000000     0.202200000000     0.520300000000     0          
H83      H      0.786000000000     0.219600000000     0.498900000000     0          
C84      C      0.778100000000     0.161100000000     0.514000000000     0          
C85      C      0.794300000000     0.141800000000     0.474900000000     0          
C86      C      0.758800000000     0.208900000000     0.631700000000     0          
C87      C      0.055800000000     0.237400000000     0.307000000000     0          
O88      O      0.092800000000     0.280400000000     0.254400000000     0          
C89      C      0.771700000000     0.218100000000     0.559200000000     0          
H90      H      0.772200000000     0.246200000000     0.563200000000     0          
C91      C      0.968800000000     0.281600000000     0.412900000000     0          
H92      H      0.988700000000     0.261900000000     0.417200000000     0          
C93      C      0.770800000000     0.134600000000     0.546800000000     0          
H94      H      0.773900000000     0.106500000000     0.543700000000     0          
C95      C      0.905500000000     0.340100000000     0.410300000000     0          
H96      H      0.884800000000     0.359500000000     0.411200000000     0          
C97      C      0.977100000000     0.319300000000     0.420800000000     0          
H98      H      0.003700000000     0.326200000000     0.427700000000     0          
C99      C      0.886900000000     0.209100000000     0.410600000000     0          
H100     H      0.872200000000     0.223600000000     0.430100000000     0          
C101     C      0.983500000000     0.214500000000     0.343500000000     0          
C102     C      0.932600000000     0.161000000000     0.345900000000     0          
H103     H      0.946800000000     0.148000000000     0.325000000000     0          
C104     C      0.944000000000     0.198900000000     0.361400000000     0          
C105     C      0.842200000000     0.142800000000     0.419900000000     0          
C106     C      0.929600000000     0.269400000000     0.397700000000     0          
C107     C      0.877700000000     0.163100000000     0.398500000000     0          
C108     C      0.897600000000     0.299200000000     0.400300000000     0          
H109     H      0.870900000000     0.291200000000     0.395100000000     0          
C110     C      0.018700000000     0.194600000000     0.349400000000     0          
H111     H      0.017500000000     0.172800000000     0.367600000000     0          
C112     C      0.921300000000     0.226200000000     0.387400000000     0          
C113     C      0.057000000000     0.202100000000     0.332000000000     0          
H114     H      0.080100000000     0.186100000000     0.336300000000     0          
C115     C      0.021200000000     0.262600000000     0.302700000000     0          
H116     H      0.022900000000     0.287400000000     0.288900000000     0          
C117     C      0.982400000000     0.248800000000     0.320700000000     0          
H118     H      0.958300000000     0.263100000000     0.316500000000     0          
C119     C      0.898500000000     0.144400000000     0.364200000000     0          
C120     C      0.095500000000     0.250900000000     0.288700000000     0          
Zr121    Zr     0.678610000000     0.293550000000     0.735190000000     0          
Zr122    Zr     0.776480000000     0.280390000000     0.695100000000     0          
O123     O      0.738120000000     0.328300000000     0.729380000000     0          
O124     O      0.718200000000     0.256610000000     0.706550000000     0          
O125     O      0.428900000000     0.080930000000     0.569700000000     0          
O126     O      0.493500000000     0.101700000000     0.565900000000     0          
O127     O      0.273200000000     0.257900000000     0.360200000000     0          
O128     O      0.238700000000     0.312500000000     0.341500000000     0          
O129     O      0.812700000000     0.337300000000     0.682800000000     0          
H130     H      0.834000000000     0.338000000000     0.698300000000     0          
H131     H      0.798800000000     0.358600000000     0.690200000000     0          
O132     O      0.623900000000     0.273300000000     0.706100000000     0          
O133     O      0.658000000000     0.359000000000     0.740700000000     0          
C134     C      0.262900000000     0.307500000000     0.408200000000     0          
C135     C      0.258400000000     0.348200000000     0.414500000000     0          
H136     H      0.247500000000     0.364800000000     0.394200000000     0          
O137     O      0.624800000000     0.302000000000     0.781400000000     0          
C138     C      0.447600000000     0.149700000000     0.580600000000     0          
C139     C      0.456800000000     0.108600000000     0.570500000000     0          
C140     C      0.325000000000     0.340100000000     0.540800000000     0          
H141     H      0.336400000000     0.317200000000     0.528500000000     0          
C142     C      0.279600000000     0.297800000000     0.479700000000     0          
H143     H      0.286000000000     0.280400000000     0.501100000000     0          
C144     C      0.278100000000     0.338900000000     0.486000000000     0          
C145     C      0.294300000000     0.358200000000     0.525100000000     0          
C146     C      0.258800000000     0.291100000000     0.368300000000     0          
C147     C      0.555800000000     0.262600000000     0.693000000000     0          
O148     O      0.592800000000     0.219600000000     0.745600000000     0          
C149     C      0.271700000000     0.281900000000     0.440800000000     0          
H150     H      0.272200000000     0.253800000000     0.436800000000     0          
C151     C      0.468800000000     0.218400000000     0.587100000000     0          
H152     H      0.488700000000     0.238100000000     0.582800000000     0          
C153     C      0.270800000000     0.365400000000     0.453200000000     0          
H154     H      0.273900000000     0.393500000000     0.456300000000     0          
C155     C      0.405500000000     0.159900000000     0.589700000000     0          
H156     H      0.384800000000     0.140500000000     0.588800000000     0          
C157     C      0.477100000000     0.180700000000     0.579200000000     0          
H158     H      0.503700000000     0.173800000000     0.572300000000     0          
C159     C      0.386900000000     0.290900000000     0.589400000000     0          
H160     H      0.372200000000     0.276400000000     0.569900000000     0          
C161     C      0.483500000000     0.285500000000     0.656500000000     0          
C162     C      0.432600000000     0.339000000000     0.654100000000     0          
H163     H      0.446800000000     0.352000000000     0.675000000000     0          
C164     C      0.444000000000     0.301100000000     0.638600000000     0          
C165     C      0.342200000000     0.357200000000     0.580100000000     0          
C166     C      0.429600000000     0.230600000000     0.602300000000     0          
C167     C      0.377700000000     0.336900000000     0.601500000000     0          
C168     C      0.397600000000     0.200800000000     0.599700000000     0          
H169     H      0.370900000000     0.208800000000     0.604900000000     0          
C170     C      0.518700000000     0.305400000000     0.650600000000     0          
H171     H      0.517500000000     0.327200000000     0.632400000000     0          
C172     C      0.421300000000     0.273800000000     0.612600000000     0          
C173     C      0.557000000000     0.297900000000     0.668000000000     0          
H174     H      0.580100000000     0.313900000000     0.663700000000     0          
C175     C      0.521200000000     0.237400000000     0.697300000000     0          
H176     H      0.522900000000     0.212600000000     0.711100000000     0          
C177     C      0.482400000000     0.251200000000     0.679300000000     0          
H178     H      0.458300000000     0.236900000000     0.683500000000     0          
C179     C      0.398500000000     0.355600000000     0.635800000000     0          
C180     C      0.595500000000     0.249100000000     0.711300000000     0          
Zr181    Zr     0.821390000000     0.706450000000     0.235190000000     0          
Zr182    Zr     0.723520000000     0.719610000000     0.195100000000     0          
O183     O      0.761880000000     0.671700000000     0.229380000000     0          
O184     O      0.781800000000     0.743390000000     0.206550000000     0          
O185     O      0.071100000000     0.919070000000     0.069700000000     0          
O186     O      0.006500000000     0.898300000000     0.065900000000     0          
O187     O      0.226800000000     0.742100000000     0.860200000000     0          
O188     O      0.261300000000     0.687500000000     0.841500000000     0          
O189     O      0.687300000000     0.662700000000     0.182800000000     0          
H190     H      0.666000000000     0.662000000000     0.198300000000     0          
H191     H      0.701200000000     0.641400000000     0.190200000000     0          
O192     O      0.876100000000     0.726700000000     0.206100000000     0          
O193     O      0.842000000000     0.641000000000     0.240700000000     0          
C194     C      0.237100000000     0.692500000000     0.908200000000     0          
C195     C      0.241600000000     0.651800000000     0.914500000000     0          
H196     H      0.252500000000     0.635200000000     0.894200000000     0          
O197     O      0.875200000000     0.698000000000     0.281400000000     0          
C198     C      0.052400000000     0.850300000000     0.080600000000     0          
C199     C      0.043200000000     0.891400000000     0.070500000000     0          
C200     C      0.175000000000     0.659900000000     0.040800000000     0          
H201     H      0.163600000000     0.682800000000     0.028500000000     0          
C202     C      0.220400000000     0.702200000000     0.979700000000     0          
H203     H      0.214000000000     0.719600000000     0.001100000000     0          
C204     C      0.221900000000     0.661100000000     0.986000000000     0          
C205     C      0.205700000000     0.641800000000     0.025100000000     0          
C206     C      0.241200000000     0.708900000000     0.868300000000     0          
C207     C      0.944200000000     0.737400000000     0.193000000000     0          
O208     O      0.907200000000     0.780400000000     0.245600000000     0          
C209     C      0.228300000000     0.718100000000     0.940800000000     0          
H210     H      0.227800000000     0.746200000000     0.936800000000     0          
C211     C      0.031200000000     0.781600000000     0.087100000000     0          
H212     H      0.011300000000     0.761900000000     0.082800000000     0          
C213     C      0.229200000000     0.634600000000     0.953200000000     0          
H214     H      0.226100000000     0.606500000000     0.956300000000     0          
C215     C      0.094500000000     0.840100000000     0.089700000000     0          
H216     H      0.115200000000     0.859500000000     0.088800000000     0          
C217     C      0.022900000000     0.819300000000     0.079200000000     0          
H218     H      0.996300000000     0.826200000000     0.072300000000     0          
C219     C      0.113100000000     0.709100000000     0.089400000000     0          
H220     H      0.127800000000     0.723600000000     0.069900000000     0          
C221     C      0.016500000000     0.714500000000     0.156500000000     0          
C222     C      0.067400000000     0.661000000000     0.154100000000     0          
H223     H      0.053200000000     0.648000000000     0.175000000000     0          
C224     C      0.056000000000     0.698900000000     0.138600000000     0          
C225     C      0.157800000000     0.642800000000     0.080100000000     0          
C226     C      0.070400000000     0.769400000000     0.102300000000     0          
C227     C      0.122300000000     0.663100000000     0.101500000000     0          
C228     C      0.102400000000     0.799200000000     0.099700000000     0          
H229     H      0.129100000000     0.791200000000     0.104900000000     0          
C230     C      0.981300000000     0.694600000000     0.150600000000     0          
H231     H      0.982500000000     0.672800000000     0.132400000000     0          
C232     C      0.078700000000     0.726200000000     0.112600000000     0          
C233     C      0.943000000000     0.702100000000     0.168000000000     0          
H234     H      0.919900000000     0.686100000000     0.163700000000     0          
C235     C      0.978800000000     0.762600000000     0.197300000000     0          
H236     H      0.977100000000     0.787400000000     0.211100000000     0          
C237     C      0.017600000000     0.748800000000     0.179300000000     0          
H238     H      0.041700000000     0.763100000000     0.183500000000     0          
C239     C      0.101500000000     0.644400000000     0.135800000000     0          
C240     C      0.904500000000     0.750900000000     0.211300000000     0          
Zr241    Zr     0.764810000000     0.321390000000     0.793550000000     0          
Zr242    Zr     0.804900000000     0.223520000000     0.780390000000     0          
O243     O      0.770620000000     0.261880000000     0.828300000000     0          
O244     O      0.793450000000     0.281800000000     0.756610000000     0          
O245     O      0.930300000000     0.571100000000     0.580930000000     0          
O246     O      0.934100000000     0.506500000000     0.601700000000     0          
O247     O      0.139800000000     0.726800000000     0.757900000000     0          
O248     O      0.158500000000     0.761300000000     0.812500000000     0          
O249     O      0.817200000000     0.187300000000     0.837300000000     0          
H250     H      0.801700000000     0.166000000000     0.838000000000     0          
H251     H      0.809800000000     0.201200000000     0.858600000000     0          
O252     O      0.793900000000     0.376100000000     0.773300000000     0          
O253     O      0.759300000000     0.342000000000     0.859000000000     0          
C254     C      0.091800000000     0.737100000000     0.807500000000     0          
C255     C      0.085500000000     0.741600000000     0.848200000000     0          
H256     H      0.105800000000     0.752500000000     0.864800000000     0          
O257     O      0.718600000000     0.375200000000     0.802000000000     0          
C258     C      0.919400000000     0.552400000000     0.649700000000     0          
C259     C      0.929500000000     0.543200000000     0.608600000000     0          
C260     C      0.959200000000     0.675000000000     0.840100000000     0          
H261     H      0.971500000000     0.663600000000     0.817200000000     0          
C262     C      0.020300000000     0.720400000000     0.797800000000     0          
H263     H      0.998900000000     0.714000000000     0.780400000000     0          
C264     C      0.014000000000     0.721900000000     0.838900000000     0          
C265     C      0.974900000000     0.705700000000     0.858200000000     0          
C266     C      0.131700000000     0.741200000000     0.791100000000     0          
C267     C      0.807000000000     0.444200000000     0.762600000000     0          
O268     O      0.754400000000     0.407200000000     0.719600000000     0          
C269     C      0.059200000000     0.728300000000     0.781900000000     0          
H270     H      0.063200000000     0.727800000000     0.753800000000     0          
C271     C      0.912900000000     0.531200000000     0.718400000000     0          
H272     H      0.917200000000     0.511300000000     0.738100000000     0          
C273     C      0.046800000000     0.729200000000     0.865400000000     0          
H274     H      0.043700000000     0.726100000000     0.893500000000     0          
C275     C      0.910300000000     0.594500000000     0.659900000000     0          
H276     H      0.911200000000     0.615200000000     0.640500000000     0          
C277     C      0.920800000000     0.522900000000     0.680700000000     0          
H278     H      0.927700000000     0.496300000000     0.673800000000     0          
C279     C      0.910600000000     0.613100000000     0.790900000000     0          
H280     H      0.930100000000     0.627800000000     0.776400000000     0          
C281     C      0.843500000000     0.516500000000     0.785500000000     0          
C282     C      0.845900000000     0.567400000000     0.839000000000     0          
H283     H      0.825000000000     0.553200000000     0.852000000000     0          
C284     C      0.861400000000     0.556000000000     0.801100000000     0          
C285     C      0.919900000000     0.657800000000     0.857200000000     0          
C286     C      0.897700000000     0.570400000000     0.730600000000     0          
C287     C      0.898500000000     0.622300000000     0.836900000000     0          
C288     C      0.900300000000     0.602400000000     0.700800000000     0          
H289     H      0.895100000000     0.629100000000     0.708800000000     0          
C290     C      0.849400000000     0.481300000000     0.805400000000     0          
H291     H      0.867600000000     0.482500000000     0.827200000000     0          
C292     C      0.887400000000     0.578700000000     0.773800000000     0          
C293     C      0.832000000000     0.443000000000     0.797900000000     0          
H294     H      0.836300000000     0.419900000000     0.813900000000     0          
C295     C      0.802700000000     0.478800000000     0.737400000000     0          
H296     H      0.788900000000     0.477100000000     0.712600000000     0          
C297     C      0.820700000000     0.517600000000     0.751200000000     0          
H298     H      0.816500000000     0.541700000000     0.736900000000     0          
C299     C      0.864200000000     0.601500000000     0.855600000000     0          
C300     C      0.788700000000     0.404500000000     0.749100000000     0          
Zr301    Zr     0.264810000000     0.178610000000     0.206450000000     0          
Zr302    Zr     0.304900000000     0.276480000000     0.219610000000     0          
O303     O      0.270620000000     0.238120000000     0.171700000000     0          
O304     O      0.293450000000     0.218200000000     0.243390000000     0          
O305     O      0.430300000000     0.928900000000     0.419070000000     0          
O306     O      0.434100000000     0.993500000000     0.398300000000     0          
O307     O      0.639800000000     0.773200000000     0.242100000000     0          
O308     O      0.658500000000     0.738700000000     0.187500000000     0          
O309     O      0.317200000000     0.312700000000     0.162700000000     0          
H310     H      0.301700000000     0.334000000000     0.162000000000     0          
H311     H      0.309800000000     0.298800000000     0.141400000000     0          
O312     O      0.293900000000     0.123900000000     0.226700000000     0          
O313     O      0.259300000000     0.158000000000     0.141000000000     0          
C314     C      0.591800000000     0.762900000000     0.192500000000     0          
C315     C      0.585500000000     0.758400000000     0.151800000000     0          
H316     H      0.605800000000     0.747500000000     0.135200000000     0          
O317     O      0.218600000000     0.124800000000     0.198000000000     0          
C318     C      0.419400000000     0.947600000000     0.350300000000     0          
C319     C      0.429500000000     0.956800000000     0.391400000000     0          
C320     C      0.459200000000     0.825000000000     0.159900000000     0          
H321     H      0.471500000000     0.836400000000     0.182800000000     0          
C322     C      0.520300000000     0.779600000000     0.202200000000     0          
H323     H      0.498900000000     0.786000000000     0.219600000000     0          
C324     C      0.514000000000     0.778100000000     0.161100000000     0          
C325     C      0.474900000000     0.794300000000     0.141800000000     0          
C326     C      0.631700000000     0.758800000000     0.208900000000     0          
C327     C      0.307000000000     0.055800000000     0.237400000000     0          
O328     O      0.254400000000     0.092800000000     0.280400000000     0          
C329     C      0.559200000000     0.771700000000     0.218100000000     0          
H330     H      0.563200000000     0.772200000000     0.246200000000     0          
C331     C      0.412900000000     0.968800000000     0.281600000000     0          
H332     H      0.417200000000     0.988700000000     0.261900000000     0          
C333     C      0.546800000000     0.770800000000     0.134600000000     0          
H334     H      0.543700000000     0.773900000000     0.106500000000     0          
C335     C      0.410300000000     0.905500000000     0.340100000000     0          
H336     H      0.411200000000     0.884800000000     0.359500000000     0          
C337     C      0.420800000000     0.977100000000     0.319300000000     0          
H338     H      0.427700000000     0.003700000000     0.326200000000     0          
C339     C      0.410600000000     0.886900000000     0.209100000000     0          
H340     H      0.430100000000     0.872200000000     0.223600000000     0          
C341     C      0.343500000000     0.983500000000     0.214500000000     0          
C342     C      0.345900000000     0.932600000000     0.161000000000     0          
H343     H      0.325000000000     0.946800000000     0.148000000000     0          
C344     C      0.361400000000     0.944000000000     0.198900000000     0          
C345     C      0.419900000000     0.842200000000     0.142800000000     0          
C346     C      0.397700000000     0.929600000000     0.269400000000     0          
C347     C      0.398500000000     0.877700000000     0.163100000000     0          
C348     C      0.400300000000     0.897600000000     0.299200000000     0          
H349     H      0.395100000000     0.870900000000     0.291200000000     0          
C350     C      0.349400000000     0.018700000000     0.194600000000     0          
H351     H      0.367600000000     0.017500000000     0.172800000000     0          
C352     C      0.387400000000     0.921300000000     0.226200000000     0          
C353     C      0.332000000000     0.057000000000     0.202100000000     0          
H354     H      0.336300000000     0.080100000000     0.186100000000     0          
C355     C      0.302700000000     0.021200000000     0.262600000000     0          
H356     H      0.288900000000     0.022900000000     0.287400000000     0          
C357     C      0.320700000000     0.982400000000     0.248800000000     0          
H358     H      0.316500000000     0.958300000000     0.263100000000     0          
C359     C      0.364200000000     0.898500000000     0.144400000000     0          
C360     C      0.288700000000     0.095500000000     0.250900000000     0          
Zr361    Zr     0.735190000000     0.678610000000     0.293550000000     0          
Zr362    Zr     0.695100000000     0.776480000000     0.280390000000     0          
O363     O      0.729380000000     0.738120000000     0.328300000000     0          
O364     O      0.706550000000     0.718200000000     0.256610000000     0          
O365     O      0.569700000000     0.428900000000     0.080930000000     0          
O366     O      0.565900000000     0.493500000000     0.101700000000     0          
O367     O      0.360200000000     0.273200000000     0.257900000000     0          
O368     O      0.341500000000     0.238700000000     0.312500000000     0          
O369     O      0.682800000000     0.812700000000     0.337300000000     0          
H370     H      0.698300000000     0.834000000000     0.338000000000     0          
H371     H      0.690200000000     0.798800000000     0.358600000000     0          
O372     O      0.706100000000     0.623900000000     0.273300000000     0          
O373     O      0.740700000000     0.658000000000     0.359000000000     0          
C374     C      0.408200000000     0.262900000000     0.307500000000     0          
C375     C      0.414500000000     0.258400000000     0.348200000000     0          
H376     H      0.394200000000     0.247500000000     0.364800000000     0          
O377     O      0.781400000000     0.624800000000     0.302000000000     0          
C378     C      0.580600000000     0.447600000000     0.149700000000     0          
C379     C      0.570500000000     0.456800000000     0.108600000000     0          
C380     C      0.540800000000     0.325000000000     0.340100000000     0          
H381     H      0.528500000000     0.336400000000     0.317200000000     0          
C382     C      0.479700000000     0.279600000000     0.297800000000     0          
H383     H      0.501100000000     0.286000000000     0.280400000000     0          
C384     C      0.486000000000     0.278100000000     0.338900000000     0          
C385     C      0.525100000000     0.294300000000     0.358200000000     0          
C386     C      0.368300000000     0.258800000000     0.291100000000     0          
C387     C      0.693000000000     0.555800000000     0.262600000000     0          
O388     O      0.745600000000     0.592800000000     0.219600000000     0          
C389     C      0.440800000000     0.271700000000     0.281900000000     0          
H390     H      0.436800000000     0.272200000000     0.253800000000     0          
C391     C      0.587100000000     0.468800000000     0.218400000000     0          
H392     H      0.582800000000     0.488700000000     0.238100000000     0          
C393     C      0.453200000000     0.270800000000     0.365400000000     0          
H394     H      0.456300000000     0.273900000000     0.393500000000     0          
C395     C      0.589700000000     0.405500000000     0.159900000000     0          
H396     H      0.588800000000     0.384800000000     0.140500000000     0          
C397     C      0.579200000000     0.477100000000     0.180700000000     0          
H398     H      0.572300000000     0.503700000000     0.173800000000     0          
C399     C      0.589400000000     0.386900000000     0.290900000000     0          
H400     H      0.569900000000     0.372200000000     0.276400000000     0          
C401     C      0.656500000000     0.483500000000     0.285500000000     0          
C402     C      0.654100000000     0.432600000000     0.339000000000     0          
H403     H      0.675000000000     0.446800000000     0.352000000000     0          
C404     C      0.638600000000     0.444000000000     0.301100000000     0          
C405     C      0.580100000000     0.342200000000     0.357200000000     0          
C406     C      0.602300000000     0.429600000000     0.230600000000     0          
C407     C      0.601500000000     0.377700000000     0.336900000000     0          
C408     C      0.599700000000     0.397600000000     0.200800000000     0          
H409     H      0.604900000000     0.370900000000     0.208800000000     0          
C410     C      0.650600000000     0.518700000000     0.305400000000     0          
H411     H      0.632400000000     0.517500000000     0.327200000000     0          
C412     C      0.612600000000     0.421300000000     0.273800000000     0          
C413     C      0.668000000000     0.557000000000     0.297900000000     0          
H414     H      0.663700000000     0.580100000000     0.313900000000     0          
C415     C      0.697300000000     0.521200000000     0.237400000000     0          
H416     H      0.711100000000     0.522900000000     0.212600000000     0          
C417     C      0.679300000000     0.482400000000     0.251200000000     0          
H418     H      0.683500000000     0.458300000000     0.236900000000     0          
C419     C      0.635800000000     0.398500000000     0.355600000000     0          
C420     C      0.711300000000     0.595500000000     0.249100000000     0          
Zr421    Zr     0.235190000000     0.821390000000     0.706450000000     0          
Zr422    Zr     0.195100000000     0.723520000000     0.719610000000     0          
O423     O      0.229380000000     0.761880000000     0.671700000000     0          
O424     O      0.206550000000     0.781800000000     0.743390000000     0          
O425     O      0.069700000000     0.071100000000     0.919070000000     0          
O426     O      0.065900000000     0.006500000000     0.898300000000     0          
O427     O      0.860200000000     0.226800000000     0.742100000000     0          
O428     O      0.841500000000     0.261300000000     0.687500000000     0          
O429     O      0.182800000000     0.687300000000     0.662700000000     0          
H430     H      0.198300000000     0.666000000000     0.662000000000     0          
H431     H      0.190200000000     0.701200000000     0.641400000000     0          
O432     O      0.206100000000     0.876100000000     0.726700000000     0          
O433     O      0.240700000000     0.842000000000     0.641000000000     0          
C434     C      0.908200000000     0.237100000000     0.692500000000     0          
C435     C      0.914500000000     0.241600000000     0.651800000000     0          
H436     H      0.894200000000     0.252500000000     0.635200000000     0          
O437     O      0.281400000000     0.875200000000     0.698000000000     0          
C438     C      0.080600000000     0.052400000000     0.850300000000     0          
C439     C      0.070500000000     0.043200000000     0.891400000000     0          
C440     C      0.040800000000     0.175000000000     0.659900000000     0          
H441     H      0.028500000000     0.163600000000     0.682800000000     0          
C442     C      0.979700000000     0.220400000000     0.702200000000     0          
H443     H      0.001100000000     0.214000000000     0.719600000000     0          
C444     C      0.986000000000     0.221900000000     0.661100000000     0          
C445     C      0.025100000000     0.205700000000     0.641800000000     0          
C446     C      0.868300000000     0.241200000000     0.708900000000     0          
C447     C      0.193000000000     0.944200000000     0.737400000000     0          
O448     O      0.245600000000     0.907200000000     0.780400000000     0          
C449     C      0.940800000000     0.228300000000     0.718100000000     0          
H450     H      0.936800000000     0.227800000000     0.746200000000     0          
C451     C      0.087100000000     0.031200000000     0.781600000000     0          
H452     H      0.082800000000     0.011300000000     0.761900000000     0          
C453     C      0.953200000000     0.229200000000     0.634600000000     0          
H454     H      0.956300000000     0.226100000000     0.606500000000     0          
C455     C      0.089700000000     0.094500000000     0.840100000000     0          
H456     H      0.088800000000     0.115200000000     0.859500000000     0          
C457     C      0.079200000000     0.022900000000     0.819300000000     0          
H458     H      0.072300000000     0.996300000000     0.826200000000     0          
C459     C      0.089400000000     0.113100000000     0.709100000000     0          
H460     H      0.069900000000     0.127800000000     0.723600000000     0          
C461     C      0.156500000000     0.016500000000     0.714500000000     0          
C462     C      0.154100000000     0.067400000000     0.661000000000     0          
H463     H      0.175000000000     0.053200000000     0.648000000000     0          
C464     C      0.138600000000     0.056000000000     0.698900000000     0          
C465     C      0.080100000000     0.157800000000     0.642800000000     0          
C466     C      0.102300000000     0.070400000000     0.769400000000     0          
C467     C      0.101500000000     0.122300000000     0.663100000000     0          
C468     C      0.099700000000     0.102400000000     0.799200000000     0          
H469     H      0.104900000000     0.129100000000     0.791200000000     0          
C470     C      0.150600000000     0.981300000000     0.694600000000     0          
H471     H      0.132400000000     0.982500000000     0.672800000000     0          
C472     C      0.112600000000     0.078700000000     0.726200000000     0          
C473     C      0.168000000000     0.943000000000     0.702100000000     0          
H474     H      0.163700000000     0.919900000000     0.686100000000     0          
C475     C      0.197300000000     0.978800000000     0.762600000000     0          
H476     H      0.211100000000     0.977100000000     0.787400000000     0          
C477     C      0.179300000000     0.017600000000     0.748800000000     0          
H478     H      0.183500000000     0.041700000000     0.763100000000     0          
C479     C      0.135800000000     0.101500000000     0.644400000000     0          
C480     C      0.211300000000     0.904500000000     0.750900000000     0          
Zr481    Zr     0.793550000000     0.764810000000     0.321390000000     0          
Zr482    Zr     0.780390000000     0.804900000000     0.223520000000     0          
O483     O      0.828300000000     0.770620000000     0.261880000000     0          
O484     O      0.756610000000     0.793450000000     0.281800000000     0          
O485     O      0.580930000000     0.930300000000     0.571100000000     0          
O486     O      0.601700000000     0.934100000000     0.506500000000     0          
O487     O      0.757900000000     0.139800000000     0.726800000000     0          
O488     O      0.812500000000     0.158500000000     0.761300000000     0          
O489     O      0.837300000000     0.817200000000     0.187300000000     0          
H490     H      0.838000000000     0.801700000000     0.166000000000     0          
H491     H      0.858600000000     0.809800000000     0.201200000000     0          
O492     O      0.773300000000     0.793900000000     0.376100000000     0          
O493     O      0.859000000000     0.759300000000     0.342000000000     0          
C494     C      0.807500000000     0.091800000000     0.737100000000     0          
C495     C      0.848200000000     0.085500000000     0.741600000000     0          
H496     H      0.864800000000     0.105800000000     0.752500000000     0          
O497     O      0.802000000000     0.718600000000     0.375200000000     0          
C498     C      0.649700000000     0.919400000000     0.552400000000     0          
C499     C      0.608600000000     0.929500000000     0.543200000000     0          
C500     C      0.840100000000     0.959200000000     0.675000000000     0          
H501     H      0.817200000000     0.971500000000     0.663600000000     0          
C502     C      0.797800000000     0.020300000000     0.720400000000     0          
H503     H      0.780400000000     0.998900000000     0.714000000000     0          
C504     C      0.838900000000     0.014000000000     0.721900000000     0          
C505     C      0.858200000000     0.974900000000     0.705700000000     0          
C506     C      0.791100000000     0.131700000000     0.741200000000     0          
C507     C      0.762600000000     0.807000000000     0.444200000000     0          
O508     O      0.719600000000     0.754400000000     0.407200000000     0          
C509     C      0.781900000000     0.059200000000     0.728300000000     0          
H510     H      0.753800000000     0.063200000000     0.727800000000     0          
C511     C      0.718400000000     0.912900000000     0.531200000000     0          
H512     H      0.738100000000     0.917200000000     0.511300000000     0          
C513     C      0.865400000000     0.046800000000     0.729200000000     0          
H514     H      0.893500000000     0.043700000000     0.726100000000     0          
C515     C      0.659900000000     0.910300000000     0.594500000000     0          
H516     H      0.640500000000     0.911200000000     0.615200000000     0          
C517     C      0.680700000000     0.920800000000     0.522900000000     0          
H518     H      0.673800000000     0.927700000000     0.496300000000     0          
C519     C      0.790900000000     0.910600000000     0.613100000000     0          
H520     H      0.776400000000     0.930100000000     0.627800000000     0          
C521     C      0.785500000000     0.843500000000     0.516500000000     0          
C522     C      0.839000000000     0.845900000000     0.567400000000     0          
H523     H      0.852000000000     0.825000000000     0.553200000000     0          
C524     C      0.801100000000     0.861400000000     0.556000000000     0          
C525     C      0.857200000000     0.919900000000     0.657800000000     0          
C526     C      0.730600000000     0.897700000000     0.570400000000     0          
C527     C      0.836900000000     0.898500000000     0.622300000000     0          
C528     C      0.700800000000     0.900300000000     0.602400000000     0          
H529     H      0.708800000000     0.895100000000     0.629100000000     0          
C530     C      0.805400000000     0.849400000000     0.481300000000     0          
H531     H      0.827200000000     0.867600000000     0.482500000000     0          
C532     C      0.773800000000     0.887400000000     0.578700000000     0          
C533     C      0.797900000000     0.832000000000     0.443000000000     0          
H534     H      0.813900000000     0.836300000000     0.419900000000     0          
C535     C      0.737400000000     0.802700000000     0.478800000000     0          
H536     H      0.712600000000     0.788900000000     0.477100000000     0          
C537     C      0.751200000000     0.820700000000     0.517600000000     0          
H538     H      0.736900000000     0.816500000000     0.541700000000     0          
C539     C      0.855600000000     0.864200000000     0.601500000000     0          
C540     C      0.749100000000     0.788700000000     0.404500000000     0          
Zr541    Zr     0.206450000000     0.264810000000     0.178610000000     0          
Zr542    Zr     0.219610000000     0.304900000000     0.276480000000     0          
O543     O      0.171700000000     0.270620000000     0.238120000000     0          
O544     O      0.243390000000     0.293450000000     0.218200000000     0          
O545     O      0.419070000000     0.430300000000     0.928900000000     0          
O546     O      0.398300000000     0.434100000000     0.993500000000     0          
O547     O      0.242100000000     0.639800000000     0.773200000000     0          
O548     O      0.187500000000     0.658500000000     0.738700000000     0          
O549     O      0.162700000000     0.317200000000     0.312700000000     0          
H550     H      0.162000000000     0.301700000000     0.334000000000     0          
H551     H      0.141400000000     0.309800000000     0.298800000000     0          
O552     O      0.226700000000     0.293900000000     0.123900000000     0          
O553     O      0.141000000000     0.259300000000     0.158000000000     0          
C554     C      0.192500000000     0.591800000000     0.762900000000     0          
C555     C      0.151800000000     0.585500000000     0.758400000000     0          
H556     H      0.135200000000     0.605800000000     0.747500000000     0          
O557     O      0.198000000000     0.218600000000     0.124800000000     0          
C558     C      0.350300000000     0.419400000000     0.947600000000     0          
C559     C      0.391400000000     0.429500000000     0.956800000000     0          
C560     C      0.159900000000     0.459200000000     0.825000000000     0          
H561     H      0.182800000000     0.471500000000     0.836400000000     0          
C562     C      0.202200000000     0.520300000000     0.779600000000     0          
H563     H      0.219600000000     0.498900000000     0.786000000000     0          
C564     C      0.161100000000     0.514000000000     0.778100000000     0          
C565     C      0.141800000000     0.474900000000     0.794300000000     0          
C566     C      0.208900000000     0.631700000000     0.758800000000     0          
C567     C      0.237400000000     0.307000000000     0.055800000000     0          
O568     O      0.280400000000     0.254400000000     0.092800000000     0          
C569     C      0.218100000000     0.559200000000     0.771700000000     0          
H570     H      0.246200000000     0.563200000000     0.772200000000     0          
C571     C      0.281600000000     0.412900000000     0.968800000000     0          
H572     H      0.261900000000     0.417200000000     0.988700000000     0          
C573     C      0.134600000000     0.546800000000     0.770800000000     0          
H574     H      0.106500000000     0.543700000000     0.773900000000     0          
C575     C      0.340100000000     0.410300000000     0.905500000000     0          
H576     H      0.359500000000     0.411200000000     0.884800000000     0          
C577     C      0.319300000000     0.420800000000     0.977100000000     0          
H578     H      0.326200000000     0.427700000000     0.003700000000     0          
C579     C      0.209100000000     0.410600000000     0.886900000000     0          
H580     H      0.223600000000     0.430100000000     0.872200000000     0          
C581     C      0.214500000000     0.343500000000     0.983500000000     0          
C582     C      0.161000000000     0.345900000000     0.932600000000     0          
H583     H      0.148000000000     0.325000000000     0.946800000000     0          
C584     C      0.198900000000     0.361400000000     0.944000000000     0          
C585     C      0.142800000000     0.419900000000     0.842200000000     0          
C586     C      0.269400000000     0.397700000000     0.929600000000     0          
C587     C      0.163100000000     0.398500000000     0.877700000000     0          
C588     C      0.299200000000     0.400300000000     0.897600000000     0          
H589     H      0.291200000000     0.395100000000     0.870900000000     0          
C590     C      0.194600000000     0.349400000000     0.018700000000     0          
H591     H      0.172800000000     0.367600000000     0.017500000000     0          
C592     C      0.226200000000     0.387400000000     0.921300000000     0          
C593     C      0.202100000000     0.332000000000     0.057000000000     0          
H594     H      0.186100000000     0.336300000000     0.080100000000     0          
C595     C      0.262600000000     0.302700000000     0.021200000000     0          
H596     H      0.287400000000     0.288900000000     0.022900000000     0          
C597     C      0.248800000000     0.320700000000     0.982400000000     0          
H598     H      0.263100000000     0.316500000000     0.958300000000     0          
C599     C      0.144400000000     0.364200000000     0.898500000000     0          
C600     C      0.250900000000     0.288700000000     0.095500000000     0          
Zr601    Zr     0.293550000000     0.735190000000     0.678610000000     0          
Zr602    Zr     0.280390000000     0.695100000000     0.776480000000     0          
O603     O      0.328300000000     0.729380000000     0.738120000000     0          
O604     O      0.256610000000     0.706550000000     0.718200000000     0          
O605     O      0.080930000000     0.569700000000     0.428900000000     0          
O606     O      0.101700000000     0.565900000000     0.493500000000     0          
O607     O      0.257900000000     0.360200000000     0.273200000000     0          
O608     O      0.312500000000     0.341500000000     0.238700000000     0          
O609     O      0.337300000000     0.682800000000     0.812700000000     0          
H610     H      0.338000000000     0.698300000000     0.834000000000     0          
H611     H      0.358600000000     0.690200000000     0.798800000000     0          
O612     O      0.273300000000     0.706100000000     0.623900000000     0          
O613     O      0.359000000000     0.740700000000     0.658000000000     0          
C614     C      0.307500000000     0.408200000000     0.262900000000     0          
C615     C      0.348200000000     0.414500000000     0.258400000000     0          
H616     H      0.364800000000     0.394200000000     0.247500000000     0          
O617     O      0.302000000000     0.781400000000     0.624800000000     0          
C618     C      0.149700000000     0.580600000000     0.447600000000     0          
C619     C      0.108600000000     0.570500000000     0.456800000000     0          
C620     C      0.340100000000     0.540800000000     0.325000000000     0          
H621     H      0.317200000000     0.528500000000     0.336400000000     0          
C622     C      0.297800000000     0.479700000000     0.279600000000     0          
H623     H      0.280400000000     0.501100000000     0.286000000000     0          
C624     C      0.338900000000     0.486000000000     0.278100000000     0          
C625     C      0.358200000000     0.525100000000     0.294300000000     0          
C626     C      0.291100000000     0.368300000000     0.258800000000     0          
C627     C      0.262600000000     0.693000000000     0.555800000000     0          
O628     O      0.219600000000     0.745600000000     0.592800000000     0          
C629     C      0.281900000000     0.440800000000     0.271700000000     0          
H630     H      0.253800000000     0.436800000000     0.272200000000     0          
C631     C      0.218400000000     0.587100000000     0.468800000000     0          
H632     H      0.238100000000     0.582800000000     0.488700000000     0          
C633     C      0.365400000000     0.453200000000     0.270800000000     0          
H634     H      0.393500000000     0.456300000000     0.273900000000     0          
C635     C      0.159900000000     0.589700000000     0.405500000000     0          
H636     H      0.140500000000     0.588800000000     0.384800000000     0          
C637     C      0.180700000000     0.579200000000     0.477100000000     0          
H638     H      0.173800000000     0.572300000000     0.503700000000     0          
C639     C      0.290900000000     0.589400000000     0.386900000000     0          
H640     H      0.276400000000     0.569900000000     0.372200000000     0          
C641     C      0.285500000000     0.656500000000     0.483500000000     0          
C642     C      0.339000000000     0.654100000000     0.432600000000     0          
H643     H      0.352000000000     0.675000000000     0.446800000000     0          
C644     C      0.301100000000     0.638600000000     0.444000000000     0          
C645     C      0.357200000000     0.580100000000     0.342200000000     0          
C646     C      0.230600000000     0.602300000000     0.429600000000     0          
C647     C      0.336900000000     0.601500000000     0.377700000000     0          
C648     C      0.200800000000     0.599700000000     0.397600000000     0          
H649     H      0.208800000000     0.604900000000     0.370900000000     0          
C650     C      0.305400000000     0.650600000000     0.518700000000     0          
H651     H      0.327200000000     0.632400000000     0.517500000000     0          
C652     C      0.273800000000     0.612600000000     0.421300000000     0          
C653     C      0.297900000000     0.668000000000     0.557000000000     0          
H654     H      0.313900000000     0.663700000000     0.580100000000     0          
C655     C      0.237400000000     0.697300000000     0.521200000000     0          
H656     H      0.212600000000     0.711100000000     0.522900000000     0          
C657     C      0.251200000000     0.679300000000     0.482400000000     0          
H658     H      0.236900000000     0.683500000000     0.458300000000     0          
C659     C      0.355600000000     0.635800000000     0.398500000000     0          
C660     C      0.249100000000     0.711300000000     0.595500000000     0          
Zr661    Zr     0.706450000000     0.235190000000     0.821390000000     0          
Zr662    Zr     0.719610000000     0.195100000000     0.723520000000     0          
O663     O      0.671700000000     0.229380000000     0.761880000000     0          
O664     O      0.743390000000     0.206550000000     0.781800000000     0          
O665     O      0.919070000000     0.069700000000     0.071100000000     0          
O666     O      0.898300000000     0.065900000000     0.006500000000     0          
O667     O      0.742100000000     0.860200000000     0.226800000000     0          
O668     O      0.687500000000     0.841500000000     0.261300000000     0          
O669     O      0.662700000000     0.182800000000     0.687300000000     0          
H670     H      0.662000000000     0.198300000000     0.666000000000     0          
H671     H      0.641400000000     0.190200000000     0.701200000000     0          
O672     O      0.726700000000     0.206100000000     0.876100000000     0          
O673     O      0.641000000000     0.240700000000     0.842000000000     0          
C674     C      0.692500000000     0.908200000000     0.237100000000     0          
C675     C      0.651800000000     0.914500000000     0.241600000000     0          
H676     H      0.635200000000     0.894200000000     0.252500000000     0          
O677     O      0.698000000000     0.281400000000     0.875200000000     0          
C678     C      0.850300000000     0.080600000000     0.052400000000     0          
C679     C      0.891400000000     0.070500000000     0.043200000000     0          
C680     C      0.659900000000     0.040800000000     0.175000000000     0          
H681     H      0.682800000000     0.028500000000     0.163600000000     0          
C682     C      0.702200000000     0.979700000000     0.220400000000     0          
H683     H      0.719600000000     0.001100000000     0.214000000000     0          
C684     C      0.661100000000     0.986000000000     0.221900000000     0          
C685     C      0.641800000000     0.025100000000     0.205700000000     0          
C686     C      0.708900000000     0.868300000000     0.241200000000     0          
C687     C      0.737400000000     0.193000000000     0.944200000000     0          
O688     O      0.780400000000     0.245600000000     0.907200000000     0          
C689     C      0.718100000000     0.940800000000     0.228300000000     0          
H690     H      0.746200000000     0.936800000000     0.227800000000     0          
C691     C      0.781600000000     0.087100000000     0.031200000000     0          
H692     H      0.761900000000     0.082800000000     0.011300000000     0          
C693     C      0.634600000000     0.953200000000     0.229200000000     0          
H694     H      0.606500000000     0.956300000000     0.226100000000     0          
C695     C      0.840100000000     0.089700000000     0.094500000000     0          
H696     H      0.859500000000     0.088800000000     0.115200000000     0          
C697     C      0.819300000000     0.079200000000     0.022900000000     0          
H698     H      0.826200000000     0.072300000000     0.996300000000     0          
C699     C      0.709100000000     0.089400000000     0.113100000000     0          
H700     H      0.723600000000     0.069900000000     0.127800000000     0          
C701     C      0.714500000000     0.156500000000     0.016500000000     0          
C702     C      0.661000000000     0.154100000000     0.067400000000     0          
H703     H      0.648000000000     0.175000000000     0.053200000000     0          
C704     C      0.698900000000     0.138600000000     0.056000000000     0          
C705     C      0.642800000000     0.080100000000     0.157800000000     0          
C706     C      0.769400000000     0.102300000000     0.070400000000     0          
C707     C      0.663100000000     0.101500000000     0.122300000000     0          
C708     C      0.799200000000     0.099700000000     0.102400000000     0          
H709     H      0.791200000000     0.104900000000     0.129100000000     0          
C710     C      0.694600000000     0.150600000000     0.981300000000     0          
H711     H      0.672800000000     0.132400000000     0.982500000000     0          
C712     C      0.726200000000     0.112600000000     0.078700000000     0          
C713     C      0.702100000000     0.168000000000     0.943000000000     0          
H714     H      0.686100000000     0.163700000000     0.919900000000     0          
C715     C      0.762600000000     0.197300000000     0.978800000000     0          
H716     H      0.787400000000     0.211100000000     0.977100000000     0          
C717     C      0.748800000000     0.179300000000     0.017600000000     0          
H718     H      0.763100000000     0.183500000000     0.041700000000     0          
C719     C      0.644400000000     0.135800000000     0.101500000000     0          
C720     C      0.750900000000     0.211300000000     0.904500000000     0          
Zr721    Zr     0.043550000000     0.071390000000     0.985190000000     0          
Zr722    Zr     0.030390000000     0.973520000000     0.945100000000     0          
O723     O      0.078300000000     0.011880000000     0.979380000000     0          
O724     O      0.006610000000     0.031800000000     0.956550000000     0          
O725     O      0.830930000000     0.321100000000     0.819700000000     0          
O726     O      0.851700000000     0.256500000000     0.815900000000     0          
O727     O      0.007900000000     0.476800000000     0.610200000000     0          
O728     O      0.062500000000     0.511300000000     0.591500000000     0          
O729     O      0.087300000000     0.937300000000     0.932800000000     0          
H730     H      0.088000000000     0.916000000000     0.948300000000     0          
H731     H      0.108600000000     0.951200000000     0.940200000000     0          
O732     O      0.023300000000     0.126100000000     0.956100000000     0          
O733     O      0.109000000000     0.092000000000     0.990700000000     0          
C734     C      0.057500000000     0.487100000000     0.658200000000     0          
C735     C      0.098200000000     0.491600000000     0.664500000000     0          
H736     H      0.114800000000     0.502500000000     0.644200000000     0          
O737     O      0.052000000000     0.125200000000     0.031400000000     0          
C738     C      0.899700000000     0.302400000000     0.830600000000     0          
C739     C      0.858600000000     0.293200000000     0.820500000000     0          
C740     C      0.090100000000     0.425000000000     0.790800000000     0          
H741     H      0.067200000000     0.413600000000     0.778500000000     0          
C742     C      0.047800000000     0.470400000000     0.729700000000     0          
H743     H      0.030400000000     0.464000000000     0.751100000000     0          
C744     C      0.088900000000     0.471900000000     0.736000000000     0          
C745     C      0.108200000000     0.455700000000     0.775100000000     0          
C746     C      0.041100000000     0.491200000000     0.618300000000     0          
C747     C      0.012600000000     0.194200000000     0.943000000000     0          
O748     O      0.969600000000     0.157200000000     0.995600000000     0          
C749     C      0.031900000000     0.478300000000     0.690800000000     0          
H750     H      0.003800000000     0.477800000000     0.686800000000     0          
C751     C      0.968400000000     0.281200000000     0.837100000000     0          
H752     H      0.988100000000     0.261300000000     0.832800000000     0          
C753     C      0.115400000000     0.479200000000     0.703200000000     0          
H754     H      0.143500000000     0.476100000000     0.706300000000     0          
C755     C      0.909900000000     0.344500000000     0.839700000000     0          
H756     H      0.890500000000     0.365200000000     0.838800000000     0          
C757     C      0.930700000000     0.272900000000     0.829200000000     0          
H758     H      0.923800000000     0.246300000000     0.822300000000     0          
C759     C      0.040900000000     0.363100000000     0.839400000000     0          
H760     H      0.026400000000     0.377800000000     0.819900000000     0          
C761     C      0.035500000000     0.266500000000     0.906500000000     0          
C762     C      0.089000000000     0.317400000000     0.904100000000     0          
H763     H      0.102000000000     0.303200000000     0.925000000000     0          
C764     C      0.051100000000     0.306000000000     0.888600000000     0          
C765     C      0.107200000000     0.407800000000     0.830100000000     0          
C766     C      0.980600000000     0.320400000000     0.852300000000     0          
C767     C      0.086900000000     0.372300000000     0.851500000000     0          
C768     C      0.950800000000     0.352400000000     0.849700000000     0          
H769     H      0.958800000000     0.379100000000     0.854900000000     0          
C770     C      0.055400000000     0.231300000000     0.900600000000     0          
H771     H      0.077200000000     0.232500000000     0.882400000000     0          
C772     C      0.023800000000     0.328700000000     0.862600000000     0          
C773     C      0.047900000000     0.193000000000     0.918000000000     0          
H774     H      0.063900000000     0.169900000000     0.913700000000     0          
C775     C      0.987400000000     0.228800000000     0.947300000000     0          
H776     H      0.962600000000     0.227100000000     0.961100000000     0          
C777     C      0.001200000000     0.267600000000     0.929300000000     0          
H778     H      0.986900000000     0.291700000000     0.933500000000     0          
C779     C      0.105600000000     0.351500000000     0.885800000000     0          
C780     C      0.999100000000     0.154500000000     0.961300000000     0          
Zr781    Zr     0.456450000000     0.928610000000     0.485190000000     0          
Zr782    Zr     0.469610000000     0.026480000000     0.445100000000     0          
O783     O      0.421700000000     0.988120000000     0.479380000000     0          
O784     O      0.493390000000     0.968200000000     0.456550000000     0          
O785     O      0.669070000000     0.678900000000     0.319700000000     0          
O786     O      0.648300000000     0.743500000000     0.315900000000     0          
O787     O      0.492100000000     0.523200000000     0.110200000000     0          
O788     O      0.437500000000     0.488700000000     0.091500000000     0          
O789     O      0.412700000000     0.062700000000     0.432800000000     0          
H790     H      0.412000000000     0.084000000000     0.448300000000     0          
H791     H      0.391400000000     0.048800000000     0.440200000000     0          
O792     O      0.476700000000     0.873900000000     0.456100000000     0          
O793     O      0.391000000000     0.908000000000     0.490700000000     0          
C794     C      0.442500000000     0.512900000000     0.158200000000     0          
C795     C      0.401800000000     0.508400000000     0.164500000000     0          
H796     H      0.385200000000     0.497500000000     0.144200000000     0          
O797     O      0.448000000000     0.874800000000     0.531400000000     0          
C798     C      0.600300000000     0.697600000000     0.330600000000     0          
C799     C      0.641400000000     0.706800000000     0.320500000000     0          
C800     C      0.409900000000     0.575000000000     0.290800000000     0          
H801     H      0.432800000000     0.586400000000     0.278500000000     0          
C802     C      0.452200000000     0.529600000000     0.229700000000     0          
H803     H      0.469600000000     0.536000000000     0.251100000000     0          
C804     C      0.411100000000     0.528100000000     0.236000000000     0          
C805     C      0.391800000000     0.544300000000     0.275100000000     0          
C806     C      0.458900000000     0.508800000000     0.118300000000     0          
C807     C      0.487400000000     0.805800000000     0.443000000000     0          
O808     O      0.530400000000     0.842800000000     0.495600000000     0          
C809     C      0.468100000000     0.521700000000     0.190800000000     0          
H810     H      0.496200000000     0.522200000000     0.186800000000     0          
C811     C      0.531600000000     0.718800000000     0.337100000000     0          
H812     H      0.511900000000     0.738700000000     0.332800000000     0          
C813     C      0.384600000000     0.520800000000     0.203200000000     0          
H814     H      0.356500000000     0.523900000000     0.206300000000     0          
C815     C      0.590100000000     0.655500000000     0.339700000000     0          
H816     H      0.609500000000     0.634800000000     0.338800000000     0          
C817     C      0.569300000000     0.727100000000     0.329200000000     0          
H818     H      0.576200000000     0.753700000000     0.322300000000     0          
C819     C      0.459100000000     0.636900000000     0.339400000000     0          
H820     H      0.473600000000     0.622200000000     0.319900000000     0          
C821     C      0.464500000000     0.733500000000     0.406500000000     0          
C822     C      0.411000000000     0.682600000000     0.404100000000     0          
H823     H      0.398000000000     0.696800000000     0.425000000000     0          
C824     C      0.448900000000     0.694000000000     0.388600000000     0          
C825     C      0.392800000000     0.592200000000     0.330100000000     0          
C826     C      0.519400000000     0.679600000000     0.352300000000     0          
C827     C      0.413100000000     0.627700000000     0.351500000000     0          
C828     C      0.549200000000     0.647600000000     0.349700000000     0          
H829     H      0.541200000000     0.620900000000     0.354900000000     0          
C830     C      0.444600000000     0.768700000000     0.400600000000     0          
H831     H      0.422800000000     0.767500000000     0.382400000000     0          
C832     C      0.476200000000     0.671300000000     0.362600000000     0          
C833     C      0.452100000000     0.807000000000     0.418000000000     0          
H834     H      0.436100000000     0.830100000000     0.413700000000     0          
C835     C      0.512600000000     0.771200000000     0.447300000000     0          
H836     H      0.537400000000     0.772900000000     0.461100000000     0          
C837     C      0.498800000000     0.732400000000     0.429300000000     0          
H838     H      0.513100000000     0.708300000000     0.433500000000     0          
C839     C      0.394400000000     0.648500000000     0.385800000000     0          
C840     C      0.500900000000     0.845500000000     0.461300000000     0          
Zr841    Zr     0.543550000000     0.428610000000     0.014810000000     0          
Zr842    Zr     0.530390000000     0.526480000000     0.054900000000     0          
O843     O      0.578300000000     0.488120000000     0.020620000000     0          
O844     O      0.506610000000     0.468200000000     0.043450000000     0          
O845     O      0.330930000000     0.178900000000     0.180300000000     0          
O846     O      0.351700000000     0.243500000000     0.184100000000     0          
O847     O      0.507900000000     0.023200000000     0.389800000000     0          
O848     O      0.562500000000     0.988700000000     0.408500000000     0          
O849     O      0.587300000000     0.562700000000     0.067200000000     0          
H850     H      0.588000000000     0.584000000000     0.051700000000     0          
H851     H      0.608600000000     0.548800000000     0.059800000000     0          
O852     O      0.523300000000     0.373900000000     0.043900000000     0          
O853     O      0.609000000000     0.408000000000     0.009300000000     0          
C854     C      0.557500000000     0.012900000000     0.341800000000     0          
C855     C      0.598200000000     0.008400000000     0.335500000000     0          
H856     H      0.614800000000     0.997500000000     0.355800000000     0          
O857     O      0.552000000000     0.374800000000     0.968600000000     0          
C858     C      0.399700000000     0.197600000000     0.169400000000     0          
C859     C      0.358600000000     0.206800000000     0.179500000000     0          
C860     C      0.590100000000     0.075000000000     0.209200000000     0          
H861     H      0.567200000000     0.086400000000     0.221500000000     0          
C862     C      0.547800000000     0.029600000000     0.270300000000     0          
H863     H      0.530400000000     0.036000000000     0.248900000000     0          
C864     C      0.588900000000     0.028100000000     0.264000000000     0          
C865     C      0.608200000000     0.044300000000     0.224900000000     0          
C866     C      0.541100000000     0.008800000000     0.381700000000     0          
C867     C      0.512600000000     0.305800000000     0.057000000000     0          
O868     O      0.469600000000     0.342800000000     0.004400000000     0          
C869     C      0.531900000000     0.021700000000     0.309200000000     0          
H870     H      0.503800000000     0.022200000000     0.313200000000     0          
C871     C      0.468400000000     0.218800000000     0.162900000000     0          
H872     H      0.488100000000     0.238700000000     0.167200000000     0          
C873     C      0.615400000000     0.020800000000     0.296800000000     0          
H874     H      0.643500000000     0.023900000000     0.293700000000     0          
C875     C      0.409900000000     0.155500000000     0.160300000000     0          
H876     H      0.390500000000     0.134800000000     0.161200000000     0          
C877     C      0.430700000000     0.227100000000     0.170800000000     0          
H878     H      0.423800000000     0.253700000000     0.177700000000     0          
C879     C      0.540900000000     0.136900000000     0.160600000000     0          
H880     H      0.526400000000     0.122200000000     0.180100000000     0          
C881     C      0.535500000000     0.233500000000     0.093500000000     0          
C882     C      0.589000000000     0.182600000000     0.095900000000     0          
H883     H      0.602000000000     0.196800000000     0.075000000000     0          
C884     C      0.551100000000     0.194000000000     0.111400000000     0          
C885     C      0.607200000000     0.092200000000     0.169900000000     0          
C886     C      0.480600000000     0.179600000000     0.147700000000     0          
C887     C      0.586900000000     0.127700000000     0.148500000000     0          
C888     C      0.450800000000     0.147600000000     0.150300000000     0          
H889     H      0.458800000000     0.120900000000     0.145100000000     0          
C890     C      0.555400000000     0.268700000000     0.099400000000     0          
H891     H      0.577200000000     0.267500000000     0.117600000000     0          
C892     C      0.523800000000     0.171300000000     0.137400000000     0          
C893     C      0.547900000000     0.307000000000     0.082000000000     0          
H894     H      0.563900000000     0.330100000000     0.086300000000     0          
C895     C      0.487400000000     0.271200000000     0.052700000000     0          
H896     H      0.462600000000     0.272900000000     0.038900000000     0          
C897     C      0.501200000000     0.232400000000     0.070700000000     0          
H898     H      0.486900000000     0.208300000000     0.066500000000     0          
C899     C      0.605600000000     0.148500000000     0.114200000000     0          
C900     C      0.499100000000     0.345500000000     0.038700000000     0          
Zr901    Zr     0.956450000000     0.571390000000     0.514810000000     0          
Zr902    Zr     0.969610000000     0.473520000000     0.554900000000     0          
O903     O      0.921700000000     0.511880000000     0.520620000000     0          
O904     O      0.993390000000     0.531800000000     0.543450000000     0          
O905     O      0.169070000000     0.821100000000     0.680300000000     0          
O906     O      0.148300000000     0.756500000000     0.684100000000     0          
O907     O      0.992100000000     0.976800000000     0.889800000000     0          
O908     O      0.937500000000     0.011300000000     0.908500000000     0          
O909     O      0.912700000000     0.437300000000     0.567200000000     0          
H910     H      0.912000000000     0.416000000000     0.551700000000     0          
H911     H      0.891400000000     0.451200000000     0.559800000000     0          
O912     O      0.976700000000     0.626100000000     0.543900000000     0          
O913     O      0.891000000000     0.592000000000     0.509300000000     0          
C914     C      0.942500000000     0.987100000000     0.841800000000     0          
C915     C      0.901800000000     0.991600000000     0.835500000000     0          
H916     H      0.885200000000     0.002500000000     0.855800000000     0          
O917     O      0.948000000000     0.625200000000     0.468600000000     0          
C918     C      0.100300000000     0.802400000000     0.669400000000     0          
C919     C      0.141400000000     0.793200000000     0.679500000000     0          
C920     C      0.909900000000     0.925000000000     0.709200000000     0          
H921     H      0.932800000000     0.913600000000     0.721500000000     0          
C922     C      0.952200000000     0.970400000000     0.770300000000     0          
H923     H      0.969600000000     0.964000000000     0.748900000000     0          
C924     C      0.911100000000     0.971900000000     0.764000000000     0          
C925     C      0.891800000000     0.955700000000     0.724900000000     0          
C926     C      0.958900000000     0.991200000000     0.881700000000     0          
C927     C      0.987400000000     0.694200000000     0.557000000000     0          
O928     O      0.030400000000     0.657200000000     0.504400000000     0          
C929     C      0.968100000000     0.978300000000     0.809200000000     0          
H930     H      0.996200000000     0.977800000000     0.813200000000     0          
C931     C      0.031600000000     0.781200000000     0.662900000000     0          
H932     H      0.011900000000     0.761300000000     0.667200000000     0          
C933     C      0.884600000000     0.979200000000     0.796800000000     0          
H934     H      0.856500000000     0.976100000000     0.793700000000     0          
C935     C      0.090100000000     0.844500000000     0.660300000000     0          
H936     H      0.109500000000     0.865200000000     0.661200000000     0          
C937     C      0.069300000000     0.772900000000     0.670800000000     0          
H938     H      0.076200000000     0.746300000000     0.677700000000     0          
C939     C      0.959100000000     0.863100000000     0.660600000000     0          
H940     H      0.973600000000     0.877800000000     0.680100000000     0          
C941     C      0.964500000000     0.766500000000     0.593500000000     0          
C942     C      0.911000000000     0.817400000000     0.595900000000     0          
H943     H      0.898000000000     0.803200000000     0.575000000000     0          
C944     C      0.948900000000     0.806000000000     0.611400000000     0          
C945     C      0.892800000000     0.907800000000     0.669900000000     0          
C946     C      0.019400000000     0.820400000000     0.647700000000     0          
C947     C      0.913100000000     0.872300000000     0.648500000000     0          
C948     C      0.049200000000     0.852400000000     0.650300000000     0          
H949     H      0.041200000000     0.879100000000     0.645100000000     0          
C950     C      0.944600000000     0.731300000000     0.599400000000     0          
H951     H      0.922800000000     0.732500000000     0.617600000000     0          
C952     C      0.976200000000     0.828700000000     0.637400000000     0          
C953     C      0.952100000000     0.693000000000     0.582000000000     0          
H954     H      0.936100000000     0.669900000000     0.586300000000     0          
C955     C      0.012600000000     0.728800000000     0.552700000000     0          
H956     H      0.037400000000     0.727100000000     0.538900000000     0          
C957     C      0.998800000000     0.767600000000     0.570700000000     0          
H958     H      0.013100000000     0.791700000000     0.566500000000     0          
C959     C      0.894400000000     0.851500000000     0.614200000000     0          
C960     C      0.000900000000     0.654500000000     0.538700000000     0          
Zr961    Zr     0.571390000000     0.514810000000     0.956450000000     0          
Zr962    Zr     0.473520000000     0.554900000000     0.969610000000     0          
O963     O      0.511880000000     0.520620000000     0.921700000000     0          
O964     O      0.531800000000     0.543450000000     0.993390000000     0          
O965     O      0.821100000000     0.680300000000     0.169070000000     0          
O966     O      0.756500000000     0.684100000000     0.148300000000     0          
O967     O      0.976800000000     0.889800000000     0.992100000000     0          
O968     O      0.011300000000     0.908500000000     0.937500000000     0          
O969     O      0.437300000000     0.567200000000     0.912700000000     0          
H970     H      0.416000000000     0.551700000000     0.912000000000     0          
H971     H      0.451200000000     0.559800000000     0.891400000000     0          
O972     O      0.626100000000     0.543900000000     0.976700000000     0          
O973     O      0.592000000000     0.509300000000     0.891000000000     0          
C974     C      0.987100000000     0.841800000000     0.942500000000     0          
C975     C      0.991600000000     0.835500000000     0.901800000000     0          
H976     H      0.002500000000     0.855800000000     0.885200000000     0          
O977     O      0.625200000000     0.468600000000     0.948000000000     0          
C978     C      0.802400000000     0.669400000000     0.100300000000     0          
C979     C      0.793200000000     0.679500000000     0.141400000000     0          
C980     C      0.925000000000     0.709200000000     0.909900000000     0          
H981     H      0.913600000000     0.721500000000     0.932800000000     0          
C982     C      0.970400000000     0.770300000000     0.952200000000     0          
H983     H      0.964000000000     0.748900000000     0.969600000000     0          
C984     C      0.971900000000     0.764000000000     0.911100000000     0          
C985     C      0.955700000000     0.724900000000     0.891800000000     0          
C986     C      0.991200000000     0.881700000000     0.958900000000     0          
C987     C      0.694200000000     0.557000000000     0.987400000000     0          
O988     O      0.657200000000     0.504400000000     0.030400000000     0          
C989     C      0.978300000000     0.809200000000     0.968100000000     0          
H990     H      0.977800000000     0.813200000000     0.996200000000     0          
C991     C      0.781200000000     0.662900000000     0.031600000000     0          
H992     H      0.761300000000     0.667200000000     0.011900000000     0          
C993     C      0.979200000000     0.796800000000     0.884600000000     0          
H994     H      0.976100000000     0.793700000000     0.856500000000     0          
C995     C      0.844500000000     0.660300000000     0.090100000000     0          
H996     H      0.865200000000     0.661200000000     0.109500000000     0          
C997     C      0.772900000000     0.670800000000     0.069300000000     0          
H998     H      0.746300000000     0.677700000000     0.076200000000     0          
C999     C      0.863100000000     0.660600000000     0.959100000000     0          
H1000    H      0.877800000000     0.680100000000     0.973600000000     0          
C1001    C      0.766500000000     0.593500000000     0.964500000000     0          
C1002    C      0.817400000000     0.595900000000     0.911000000000     0          
H1003    H      0.803200000000     0.575000000000     0.898000000000     0          
C1004    C      0.806000000000     0.611400000000     0.948900000000     0          
C1005    C      0.907800000000     0.669900000000     0.892800000000     0          
C1006    C      0.820400000000     0.647700000000     0.019400000000     0          
C1007    C      0.872300000000     0.648500000000     0.913100000000     0          
C1008    C      0.852400000000     0.650300000000     0.049200000000     0          
H1009    H      0.879100000000     0.645100000000     0.041200000000     0          
C1010    C      0.731300000000     0.599400000000     0.944600000000     0          
H1011    H      0.732500000000     0.617600000000     0.922800000000     0          
C1012    C      0.828700000000     0.637400000000     0.976200000000     0          
C1013    C      0.693000000000     0.582000000000     0.952100000000     0          
H1014    H      0.669900000000     0.586300000000     0.936100000000     0          
C1015    C      0.728800000000     0.552700000000     0.012600000000     0          
H1016    H      0.727100000000     0.538900000000     0.037400000000     0          
C1017    C      0.767600000000     0.570700000000     0.998800000000     0          
H1018    H      0.791700000000     0.566500000000     0.013100000000     0          
C1019    C      0.851500000000     0.614200000000     0.894400000000     0          
C1020    C      0.654500000000     0.538700000000     0.000900000000     0          
Zr1021   Zr     0.428610000000     0.014810000000     0.543550000000     0          
Zr1022   Zr     0.526480000000     0.054900000000     0.530390000000     0          
O1023    O      0.488120000000     0.020620000000     0.578300000000     0          
O1024    O      0.468200000000     0.043450000000     0.506610000000     0          
O1025    O      0.178900000000     0.180300000000     0.330930000000     0          
O1026    O      0.243500000000     0.184100000000     0.351700000000     0          
O1027    O      0.023200000000     0.389800000000     0.507900000000     0          
O1028    O      0.988700000000     0.408500000000     0.562500000000     0          
O1029    O      0.562700000000     0.067200000000     0.587300000000     0          
H1030    H      0.584000000000     0.051700000000     0.588000000000     0          
H1031    H      0.548800000000     0.059800000000     0.608600000000     0          
O1032    O      0.373900000000     0.043900000000     0.523300000000     0          
O1033    O      0.408000000000     0.009300000000     0.609000000000     0          
C1034    C      0.012900000000     0.341800000000     0.557500000000     0          
C1035    C      0.008400000000     0.335500000000     0.598200000000     0          
H1036    H      0.997500000000     0.355800000000     0.614800000000     0          
O1037    O      0.374800000000     0.968600000000     0.552000000000     0          
C1038    C      0.197600000000     0.169400000000     0.399700000000     0          
C1039    C      0.206800000000     0.179500000000     0.358600000000     0          
C1040    C      0.075000000000     0.209200000000     0.590100000000     0          
H1041    H      0.086400000000     0.221500000000     0.567200000000     0          
C1042    C      0.029600000000     0.270300000000     0.547800000000     0          
H1043    H      0.036000000000     0.248900000000     0.530400000000     0          
C1044    C      0.028100000000     0.264000000000     0.588900000000     0          
C1045    C      0.044300000000     0.224900000000     0.608200000000     0          
C1046    C      0.008800000000     0.381700000000     0.541100000000     0          
C1047    C      0.305800000000     0.057000000000     0.512600000000     0          
O1048    O      0.342800000000     0.004400000000     0.469600000000     0          
C1049    C      0.021700000000     0.309200000000     0.531900000000     0          
H1050    H      0.022200000000     0.313200000000     0.503800000000     0          
C1051    C      0.218800000000     0.162900000000     0.468400000000     0          
H1052    H      0.238700000000     0.167200000000     0.488100000000     0          
C1053    C      0.020800000000     0.296800000000     0.615400000000     0          
H1054    H      0.023900000000     0.293700000000     0.643500000000     0          
C1055    C      0.155500000000     0.160300000000     0.409900000000     0          
H1056    H      0.134800000000     0.161200000000     0.390500000000     0          
C1057    C      0.227100000000     0.170800000000     0.430700000000     0          
H1058    H      0.253700000000     0.177700000000     0.423800000000     0          
C1059    C      0.136900000000     0.160600000000     0.540900000000     0          
H1060    H      0.122200000000     0.180100000000     0.526400000000     0          
C1061    C      0.233500000000     0.093500000000     0.535500000000     0          
C1062    C      0.182600000000     0.095900000000     0.589000000000     0          
H1063    H      0.196800000000     0.075000000000     0.602000000000     0          
C1064    C      0.194000000000     0.111400000000     0.551100000000     0          
C1065    C      0.092200000000     0.169900000000     0.607200000000     0          
C1066    C      0.179600000000     0.147700000000     0.480600000000     0          
C1067    C      0.127700000000     0.148500000000     0.586900000000     0          
C1068    C      0.147600000000     0.150300000000     0.450800000000     0          
H1069    H      0.120900000000     0.145100000000     0.458800000000     0          
C1070    C      0.268700000000     0.099400000000     0.555400000000     0          
H1071    H      0.267500000000     0.117600000000     0.577200000000     0          
C1072    C      0.171300000000     0.137400000000     0.523800000000     0          
C1073    C      0.307000000000     0.082000000000     0.547900000000     0          
H1074    H      0.330100000000     0.086300000000     0.563900000000     0          
C1075    C      0.271200000000     0.052700000000     0.487400000000     0          
H1076    H      0.272900000000     0.038900000000     0.462600000000     0          
C1077    C      0.232400000000     0.070700000000     0.501200000000     0          
H1078    H      0.208300000000     0.066500000000     0.486900000000     0          
C1079    C      0.148500000000     0.114200000000     0.605600000000     0          
C1080    C      0.345500000000     0.038700000000     0.499100000000     0          
Zr1081   Zr     0.928610000000     0.485190000000     0.456450000000     0          
Zr1082   Zr     0.026480000000     0.445100000000     0.469610000000     0          
O1083    O      0.988120000000     0.479380000000     0.421700000000     0          
O1084    O      0.968200000000     0.456550000000     0.493390000000     0          
O1085    O      0.678900000000     0.319700000000     0.669070000000     0          
O1086    O      0.743500000000     0.315900000000     0.648300000000     0          
O1087    O      0.523200000000     0.110200000000     0.492100000000     0          
O1088    O      0.488700000000     0.091500000000     0.437500000000     0          
O1089    O      0.062700000000     0.432800000000     0.412700000000     0          
H1090    H      0.084000000000     0.448300000000     0.412000000000     0          
H1091    H      0.048800000000     0.440200000000     0.391400000000     0          
O1092    O      0.873900000000     0.456100000000     0.476700000000     0          
O1093    O      0.908000000000     0.490700000000     0.391000000000     0          
C1094    C      0.512900000000     0.158200000000     0.442500000000     0          
C1095    C      0.508400000000     0.164500000000     0.401800000000     0          
H1096    H      0.497500000000     0.144200000000     0.385200000000     0          
O1097    O      0.874800000000     0.531400000000     0.448000000000     0          
C1098    C      0.697600000000     0.330600000000     0.600300000000     0          
C1099    C      0.706800000000     0.320500000000     0.641400000000     0          
C1100    C      0.575000000000     0.290800000000     0.409900000000     0          
H1101    H      0.586400000000     0.278500000000     0.432800000000     0          
C1102    C      0.529600000000     0.229700000000     0.452200000000     0          
H1103    H      0.536000000000     0.251100000000     0.469600000000     0          
C1104    C      0.528100000000     0.236000000000     0.411100000000     0          
C1105    C      0.544300000000     0.275100000000     0.391800000000     0          
C1106    C      0.508800000000     0.118300000000     0.458900000000     0          
C1107    C      0.805800000000     0.443000000000     0.487400000000     0          
O1108    O      0.842800000000     0.495600000000     0.530400000000     0          
C1109    C      0.521700000000     0.190800000000     0.468100000000     0          
H1110    H      0.522200000000     0.186800000000     0.496200000000     0          
C1111    C      0.718800000000     0.337100000000     0.531600000000     0          
H1112    H      0.738700000000     0.332800000000     0.511900000000     0          
C1113    C      0.520800000000     0.203200000000     0.384600000000     0          
H1114    H      0.523900000000     0.206300000000     0.356500000000     0          
C1115    C      0.655500000000     0.339700000000     0.590100000000     0          
H1116    H      0.634800000000     0.338800000000     0.609500000000     0          
C1117    C      0.727100000000     0.329200000000     0.569300000000     0          
H1118    H      0.753700000000     0.322300000000     0.576200000000     0          
C1119    C      0.636900000000     0.339400000000     0.459100000000     0          
H1120    H      0.622200000000     0.319900000000     0.473600000000     0          
C1121    C      0.733500000000     0.406500000000     0.464500000000     0          
C1122    C      0.682600000000     0.404100000000     0.411000000000     0          
H1123    H      0.696800000000     0.425000000000     0.398000000000     0          
C1124    C      0.694000000000     0.388600000000     0.448900000000     0          
C1125    C      0.592200000000     0.330100000000     0.392800000000     0          
C1126    C      0.679600000000     0.352300000000     0.519400000000     0          
C1127    C      0.627700000000     0.351500000000     0.413100000000     0          
C1128    C      0.647600000000     0.349700000000     0.549200000000     0          
H1129    H      0.620900000000     0.354900000000     0.541200000000     0          
C1130    C      0.768700000000     0.400600000000     0.444600000000     0          
H1131    H      0.767500000000     0.382400000000     0.422800000000     0          
C1132    C      0.671300000000     0.362600000000     0.476200000000     0          
C1133    C      0.807000000000     0.418000000000     0.452100000000     0          
H1134    H      0.830100000000     0.413700000000     0.436100000000     0          
C1135    C      0.771200000000     0.447300000000     0.512600000000     0          
H1136    H      0.772900000000     0.461100000000     0.537400000000     0          
C1137    C      0.732400000000     0.429300000000     0.498800000000     0          
H1138    H      0.708300000000     0.433500000000     0.513100000000     0          
C1139    C      0.648500000000     0.385800000000     0.394400000000     0          
C1140    C      0.845500000000     0.461300000000     0.500900000000     0          
Zr1141   Zr     0.071390000000     0.985190000000     0.043550000000     0          
Zr1142   Zr     0.973520000000     0.945100000000     0.030390000000     0          
O1143    O      0.011880000000     0.979380000000     0.078300000000     0          
O1144    O      0.031800000000     0.956550000000     0.006610000000     0          
O1145    O      0.321100000000     0.819700000000     0.830930000000     0          
O1146    O      0.256500000000     0.815900000000     0.851700000000     0          
O1147    O      0.476800000000     0.610200000000     0.007900000000     0          
O1148    O      0.511300000000     0.591500000000     0.062500000000     0          
O1149    O      0.937300000000     0.932800000000     0.087300000000     0          
H1150    H      0.916000000000     0.948300000000     0.088000000000     0          
H1151    H      0.951200000000     0.940200000000     0.108600000000     0          
O1152    O      0.126100000000     0.956100000000     0.023300000000     0          
O1153    O      0.092000000000     0.990700000000     0.109000000000     0          
C1154    C      0.487100000000     0.658200000000     0.057500000000     0          
C1155    C      0.491600000000     0.664500000000     0.098200000000     0          
H1156    H      0.502500000000     0.644200000000     0.114800000000     0          
O1157    O      0.125200000000     0.031400000000     0.052000000000     0          
C1158    C      0.302400000000     0.830600000000     0.899700000000     0          
C1159    C      0.293200000000     0.820500000000     0.858600000000     0          
C1160    C      0.425000000000     0.790800000000     0.090100000000     0          
H1161    H      0.413600000000     0.778500000000     0.067200000000     0          
C1162    C      0.470400000000     0.729700000000     0.047800000000     0          
H1163    H      0.464000000000     0.751100000000     0.030400000000     0          
C1164    C      0.471900000000     0.736000000000     0.088900000000     0          
C1165    C      0.455700000000     0.775100000000     0.108200000000     0          
C1166    C      0.491200000000     0.618300000000     0.041100000000     0          
C1167    C      0.194200000000     0.943000000000     0.012600000000     0          
O1168    O      0.157200000000     0.995600000000     0.969600000000     0          
C1169    C      0.478300000000     0.690800000000     0.031900000000     0          
H1170    H      0.477800000000     0.686800000000     0.003800000000     0          
C1171    C      0.281200000000     0.837100000000     0.968400000000     0          
H1172    H      0.261300000000     0.832800000000     0.988100000000     0          
C1173    C      0.479200000000     0.703200000000     0.115400000000     0          
H1174    H      0.476100000000     0.706300000000     0.143500000000     0          
C1175    C      0.344500000000     0.839700000000     0.909900000000     0          
H1176    H      0.365200000000     0.838800000000     0.890500000000     0          
C1177    C      0.272900000000     0.829200000000     0.930700000000     0          
H1178    H      0.246300000000     0.822300000000     0.923800000000     0          
C1179    C      0.363100000000     0.839400000000     0.040900000000     0          
H1180    H      0.377800000000     0.819900000000     0.026400000000     0          
C1181    C      0.266500000000     0.906500000000     0.035500000000     0          
C1182    C      0.317400000000     0.904100000000     0.089000000000     0          
H1183    H      0.303200000000     0.925000000000     0.102000000000     0          
C1184    C      0.306000000000     0.888600000000     0.051100000000     0          
C1185    C      0.407800000000     0.830100000000     0.107200000000     0          
C1186    C      0.320400000000     0.852300000000     0.980600000000     0          
C1187    C      0.372300000000     0.851500000000     0.086900000000     0          
C1188    C      0.352400000000     0.849700000000     0.950800000000     0          
H1189    H      0.379100000000     0.854900000000     0.958800000000     0          
C1190    C      0.231300000000     0.900600000000     0.055400000000     0          
H1191    H      0.232500000000     0.882400000000     0.077200000000     0          
C1192    C      0.328700000000     0.862600000000     0.023800000000     0          
C1193    C      0.193000000000     0.918000000000     0.047900000000     0          
H1194    H      0.169900000000     0.913700000000     0.063900000000     0          
C1195    C      0.228800000000     0.947300000000     0.987400000000     0          
H1196    H      0.227100000000     0.961100000000     0.962600000000     0          
C1197    C      0.267600000000     0.929300000000     0.001200000000     0          
H1198    H      0.291700000000     0.933500000000     0.986900000000     0          
C1199    C      0.351500000000     0.885800000000     0.105600000000     0          
C1200    C      0.154500000000     0.961300000000     0.999100000000     0          
Zr1201   Zr     0.014810000000     0.543550000000     0.428610000000     0          
Zr1202   Zr     0.054900000000     0.530390000000     0.526480000000     0          
O1203    O      0.020620000000     0.578300000000     0.488120000000     0          
O1204    O      0.043450000000     0.506610000000     0.468200000000     0          
O1205    O      0.180300000000     0.330930000000     0.178900000000     0          
O1206    O      0.184100000000     0.351700000000     0.243500000000     0          
O1207    O      0.389800000000     0.507900000000     0.023200000000     0          
O1208    O      0.408500000000     0.562500000000     0.988700000000     0          
O1209    O      0.067200000000     0.587300000000     0.562700000000     0          
H1210    H      0.051700000000     0.588000000000     0.584000000000     0          
H1211    H      0.059800000000     0.608600000000     0.548800000000     0          
O1212    O      0.043900000000     0.523300000000     0.373900000000     0          
O1213    O      0.009300000000     0.609000000000     0.408000000000     0          
C1214    C      0.341800000000     0.557500000000     0.012900000000     0          
C1215    C      0.335500000000     0.598200000000     0.008400000000     0          
H1216    H      0.355800000000     0.614800000000     0.997500000000     0          
O1217    O      0.968600000000     0.552000000000     0.374800000000     0          
C1218    C      0.169400000000     0.399700000000     0.197600000000     0          
C1219    C      0.179500000000     0.358600000000     0.206800000000     0          
C1220    C      0.209200000000     0.590100000000     0.075000000000     0          
H1221    H      0.221500000000     0.567200000000     0.086400000000     0          
C1222    C      0.270300000000     0.547800000000     0.029600000000     0          
H1223    H      0.248900000000     0.530400000000     0.036000000000     0          
C1224    C      0.264000000000     0.588900000000     0.028100000000     0          
C1225    C      0.224900000000     0.608200000000     0.044300000000     0          
C1226    C      0.381700000000     0.541100000000     0.008800000000     0          
C1227    C      0.057000000000     0.512600000000     0.305800000000     0          
O1228    O      0.004400000000     0.469600000000     0.342800000000     0          
C1229    C      0.309200000000     0.531900000000     0.021700000000     0          
H1230    H      0.313200000000     0.503800000000     0.022200000000     0          
C1231    C      0.162900000000     0.468400000000     0.218800000000     0          
H1232    H      0.167200000000     0.488100000000     0.238700000000     0          
C1233    C      0.296800000000     0.615400000000     0.020800000000     0          
H1234    H      0.293700000000     0.643500000000     0.023900000000     0          
C1235    C      0.160300000000     0.409900000000     0.155500000000     0          
H1236    H      0.161200000000     0.390500000000     0.134800000000     0          
C1237    C      0.170800000000     0.430700000000     0.227100000000     0          
H1238    H      0.177700000000     0.423800000000     0.253700000000     0          
C1239    C      0.160600000000     0.540900000000     0.136900000000     0          
H1240    H      0.180100000000     0.526400000000     0.122200000000     0          
C1241    C      0.093500000000     0.535500000000     0.233500000000     0          
C1242    C      0.095900000000     0.589000000000     0.182600000000     0          
H1243    H      0.075000000000     0.602000000000     0.196800000000     0          
C1244    C      0.111400000000     0.551100000000     0.194000000000     0          
C1245    C      0.169900000000     0.607200000000     0.092200000000     0          
C1246    C      0.147700000000     0.480600000000     0.179600000000     0          
C1247    C      0.148500000000     0.586900000000     0.127700000000     0          
C1248    C      0.150300000000     0.450800000000     0.147600000000     0          
H1249    H      0.145100000000     0.458800000000     0.120900000000     0          
C1250    C      0.099400000000     0.555400000000     0.268700000000     0          
H1251    H      0.117600000000     0.577200000000     0.267500000000     0          
C1252    C      0.137400000000     0.523800000000     0.171300000000     0          
C1253    C      0.082000000000     0.547900000000     0.307000000000     0          
H1254    H      0.086300000000     0.563900000000     0.330100000000     0          
C1255    C      0.052700000000     0.487400000000     0.271200000000     0          
H1256    H      0.038900000000     0.462600000000     0.272900000000     0          
C1257    C      0.070700000000     0.501200000000     0.232400000000     0          
H1258    H      0.066500000000     0.486900000000     0.208300000000     0          
C1259    C      0.114200000000     0.605600000000     0.148500000000     0          
C1260    C      0.038700000000     0.499100000000     0.345500000000     0          
Zr1261   Zr     0.514810000000     0.956450000000     0.571390000000     0          
Zr1262   Zr     0.554900000000     0.969610000000     0.473520000000     0          
O1263    O      0.520620000000     0.921700000000     0.511880000000     0          
O1264    O      0.543450000000     0.993390000000     0.531800000000     0          
O1265    O      0.680300000000     0.169070000000     0.821100000000     0          
O1266    O      0.684100000000     0.148300000000     0.756500000000     0          
O1267    O      0.889800000000     0.992100000000     0.976800000000     0          
O1268    O      0.908500000000     0.937500000000     0.011300000000     0          
O1269    O      0.567200000000     0.912700000000     0.437300000000     0          
H1270    H      0.551700000000     0.912000000000     0.416000000000     0          
H1271    H      0.559800000000     0.891400000000     0.451200000000     0          
O1272    O      0.543900000000     0.976700000000     0.626100000000     0          
O1273    O      0.509300000000     0.891000000000     0.592000000000     0          
C1274    C      0.841800000000     0.942500000000     0.987100000000     0          
C1275    C      0.835500000000     0.901800000000     0.991600000000     0          
H1276    H      0.855800000000     0.885200000000     0.002500000000     0          
O1277    O      0.468600000000     0.948000000000     0.625200000000     0          
C1278    C      0.669400000000     0.100300000000     0.802400000000     0          
C1279    C      0.679500000000     0.141400000000     0.793200000000     0          
C1280    C      0.709200000000     0.909900000000     0.925000000000     0          
H1281    H      0.721500000000     0.932800000000     0.913600000000     0          
C1282    C      0.770300000000     0.952200000000     0.970400000000     0          
H1283    H      0.748900000000     0.969600000000     0.964000000000     0          
C1284    C      0.764000000000     0.911100000000     0.971900000000     0          
C1285    C      0.724900000000     0.891800000000     0.955700000000     0          
C1286    C      0.881700000000     0.958900000000     0.991200000000     0          
C1287    C      0.557000000000     0.987400000000     0.694200000000     0          
O1288    O      0.504400000000     0.030400000000     0.657200000000     0          
C1289    C      0.809200000000     0.968100000000     0.978300000000     0          
H1290    H      0.813200000000     0.996200000000     0.977800000000     0          
C1291    C      0.662900000000     0.031600000000     0.781200000000     0          
H1292    H      0.667200000000     0.011900000000     0.761300000000     0          
C1293    C      0.796800000000     0.884600000000     0.979200000000     0          
H1294    H      0.793700000000     0.856500000000     0.976100000000     0          
C1295    C      0.660300000000     0.090100000000     0.844500000000     0          
H1296    H      0.661200000000     0.109500000000     0.865200000000     0          
C1297    C      0.670800000000     0.069300000000     0.772900000000     0          
H1298    H      0.677700000000     0.076200000000     0.746300000000     0          
C1299    C      0.660600000000     0.959100000000     0.863100000000     0          
H1300    H      0.680100000000     0.973600000000     0.877800000000     0          
C1301    C      0.593500000000     0.964500000000     0.766500000000     0          
C1302    C      0.595900000000     0.911000000000     0.817400000000     0          
H1303    H      0.575000000000     0.898000000000     0.803200000000     0          
C1304    C      0.611400000000     0.948900000000     0.806000000000     0          
C1305    C      0.669900000000     0.892800000000     0.907800000000     0          
C1306    C      0.647700000000     0.019400000000     0.820400000000     0          
C1307    C      0.648500000000     0.913100000000     0.872300000000     0          
C1308    C      0.650300000000     0.049200000000     0.852400000000     0          
H1309    H      0.645100000000     0.041200000000     0.879100000000     0          
C1310    C      0.599400000000     0.944600000000     0.731300000000     0          
H1311    H      0.617600000000     0.922800000000     0.732500000000     0          
C1312    C      0.637400000000     0.976200000000     0.828700000000     0          
C1313    C      0.582000000000     0.952100000000     0.693000000000     0          
H1314    H      0.586300000000     0.936100000000     0.669900000000     0          
C1315    C      0.552700000000     0.012600000000     0.728800000000     0          
H1316    H      0.538900000000     0.037400000000     0.727100000000     0          
C1317    C      0.570700000000     0.998800000000     0.767600000000     0          
H1318    H      0.566500000000     0.013100000000     0.791700000000     0          
C1319    C      0.614200000000     0.894400000000     0.851500000000     0          
C1320    C      0.538700000000     0.000900000000     0.654500000000     0          
Zr1321   Zr     0.985190000000     0.043550000000     0.071390000000     0          
Zr1322   Zr     0.945100000000     0.030390000000     0.973520000000     0          
O1323    O      0.979380000000     0.078300000000     0.011880000000     0          
O1324    O      0.956550000000     0.006610000000     0.031800000000     0          
O1325    O      0.819700000000     0.830930000000     0.321100000000     0          
O1326    O      0.815900000000     0.851700000000     0.256500000000     0          
O1327    O      0.610200000000     0.007900000000     0.476800000000     0          
O1328    O      0.591500000000     0.062500000000     0.511300000000     0          
O1329    O      0.932800000000     0.087300000000     0.937300000000     0          
H1330    H      0.948300000000     0.088000000000     0.916000000000     0          
H1331    H      0.940200000000     0.108600000000     0.951200000000     0          
O1332    O      0.956100000000     0.023300000000     0.126100000000     0          
O1333    O      0.990700000000     0.109000000000     0.092000000000     0          
C1334    C      0.658200000000     0.057500000000     0.487100000000     0          
C1335    C      0.664500000000     0.098200000000     0.491600000000     0          
H1336    H      0.644200000000     0.114800000000     0.502500000000     0          
O1337    O      0.031400000000     0.052000000000     0.125200000000     0          
C1338    C      0.830600000000     0.899700000000     0.302400000000     0          
C1339    C      0.820500000000     0.858600000000     0.293200000000     0          
C1340    C      0.790800000000     0.090100000000     0.425000000000     0          
H1341    H      0.778500000000     0.067200000000     0.413600000000     0          
C1342    C      0.729700000000     0.047800000000     0.470400000000     0          
H1343    H      0.751100000000     0.030400000000     0.464000000000     0          
C1344    C      0.736000000000     0.088900000000     0.471900000000     0          
C1345    C      0.775100000000     0.108200000000     0.455700000000     0          
C1346    C      0.618300000000     0.041100000000     0.491200000000     0          
C1347    C      0.943000000000     0.012600000000     0.194200000000     0          
O1348    O      0.995600000000     0.969600000000     0.157200000000     0          
C1349    C      0.690800000000     0.031900000000     0.478300000000     0          
H1350    H      0.686800000000     0.003800000000     0.477800000000     0          
C1351    C      0.837100000000     0.968400000000     0.281200000000     0          
H1352    H      0.832800000000     0.988100000000     0.261300000000     0          
C1353    C      0.703200000000     0.115400000000     0.479200000000     0          
H1354    H      0.706300000000     0.143500000000     0.476100000000     0          
C1355    C      0.839700000000     0.909900000000     0.344500000000     0          
H1356    H      0.838800000000     0.890500000000     0.365200000000     0          
C1357    C      0.829200000000     0.930700000000     0.272900000000     0          
H1358    H      0.822300000000     0.923800000000     0.246300000000     0          
C1359    C      0.839400000000     0.040900000000     0.363100000000     0          
H1360    H      0.819900000000     0.026400000000     0.377800000000     0          
C1361    C      0.906500000000     0.035500000000     0.266500000000     0          
C1362    C      0.904100000000     0.089000000000     0.317400000000     0          
H1363    H      0.925000000000     0.102000000000     0.303200000000     0          
C1364    C      0.888600000000     0.051100000000     0.306000000000     0          
C1365    C      0.830100000000     0.107200000000     0.407800000000     0          
C1366    C      0.852300000000     0.980600000000     0.320400000000     0          
C1367    C      0.851500000000     0.086900000000     0.372300000000     0          
C1368    C      0.849700000000     0.950800000000     0.352400000000     0          
H1369    H      0.854900000000     0.958800000000     0.379100000000     0          
C1370    C      0.900600000000     0.055400000000     0.231300000000     0          
H1371    H      0.882400000000     0.077200000000     0.232500000000     0          
C1372    C      0.862600000000     0.023800000000     0.328700000000     0          
C1373    C      0.918000000000     0.047900000000     0.193000000000     0          
H1374    H      0.913700000000     0.063900000000     0.169900000000     0          
C1375    C      0.947300000000     0.987400000000     0.228800000000     0          
H1376    H      0.961100000000     0.962600000000     0.227100000000     0          
C1377    C      0.929300000000     0.001200000000     0.267600000000     0          
H1378    H      0.933500000000     0.986900000000     0.291700000000     0          
C1379    C      0.885800000000     0.105600000000     0.351500000000     0          
C1380    C      0.961300000000     0.999100000000     0.154500000000     0          
Zr1381   Zr     0.485190000000     0.456450000000     0.928610000000     0          
Zr1382   Zr     0.445100000000     0.469610000000     0.026480000000     0          
O1383    O      0.479380000000     0.421700000000     0.988120000000     0          
O1384    O      0.456550000000     0.493390000000     0.968200000000     0          
O1385    O      0.319700000000     0.669070000000     0.678900000000     0          
O1386    O      0.315900000000     0.648300000000     0.743500000000     0          
O1387    O      0.110200000000     0.492100000000     0.523200000000     0          
O1388    O      0.091500000000     0.437500000000     0.488700000000     0          
O1389    O      0.432800000000     0.412700000000     0.062700000000     0          
H1390    H      0.448300000000     0.412000000000     0.084000000000     0          
H1391    H      0.440200000000     0.391400000000     0.048800000000     0          
O1392    O      0.456100000000     0.476700000000     0.873900000000     0          
O1393    O      0.490700000000     0.391000000000     0.908000000000     0          
C1394    C      0.158200000000     0.442500000000     0.512900000000     0          
C1395    C      0.164500000000     0.401800000000     0.508400000000     0          
H1396    H      0.144200000000     0.385200000000     0.497500000000     0          
O1397    O      0.531400000000     0.448000000000     0.874800000000     0          
C1398    C      0.330600000000     0.600300000000     0.697600000000     0          
C1399    C      0.320500000000     0.641400000000     0.706800000000     0          
C1400    C      0.290800000000     0.409900000000     0.575000000000     0          
H1401    H      0.278500000000     0.432800000000     0.586400000000     0          
C1402    C      0.229700000000     0.452200000000     0.529600000000     0          
H1403    H      0.251100000000     0.469600000000     0.536000000000     0          
C1404    C      0.236000000000     0.411100000000     0.528100000000     0          
C1405    C      0.275100000000     0.391800000000     0.544300000000     0          
C1406    C      0.118300000000     0.458900000000     0.508800000000     0          
C1407    C      0.443000000000     0.487400000000     0.805800000000     0          
O1408    O      0.495600000000     0.530400000000     0.842800000000     0          
C1409    C      0.190800000000     0.468100000000     0.521700000000     0          
H1410    H      0.186800000000     0.496200000000     0.522200000000     0          
C1411    C      0.337100000000     0.531600000000     0.718800000000     0          
H1412    H      0.332800000000     0.511900000000     0.738700000000     0          
C1413    C      0.203200000000     0.384600000000     0.520800000000     0          
H1414    H      0.206300000000     0.356500000000     0.523900000000     0          
C1415    C      0.339700000000     0.590100000000     0.655500000000     0          
H1416    H      0.338800000000     0.609500000000     0.634800000000     0          
C1417    C      0.329200000000     0.569300000000     0.727100000000     0          
H1418    H      0.322300000000     0.576200000000     0.753700000000     0          
C1419    C      0.339400000000     0.459100000000     0.636900000000     0          
H1420    H      0.319900000000     0.473600000000     0.622200000000     0          
C1421    C      0.406500000000     0.464500000000     0.733500000000     0          
C1422    C      0.404100000000     0.411000000000     0.682600000000     0          
H1423    H      0.425000000000     0.398000000000     0.696800000000     0          
C1424    C      0.388600000000     0.448900000000     0.694000000000     0          
C1425    C      0.330100000000     0.392800000000     0.592200000000     0          
C1426    C      0.352300000000     0.519400000000     0.679600000000     0          
C1427    C      0.351500000000     0.413100000000     0.627700000000     0          
C1428    C      0.349700000000     0.549200000000     0.647600000000     0          
H1429    H      0.354900000000     0.541200000000     0.620900000000     0          
C1430    C      0.400600000000     0.444600000000     0.768700000000     0          
H1431    H      0.382400000000     0.422800000000     0.767500000000     0          
C1432    C      0.362600000000     0.476200000000     0.671300000000     0          
C1433    C      0.418000000000     0.452100000000     0.807000000000     0          
H1434    H      0.413700000000     0.436100000000     0.830100000000     0          
C1435    C      0.447300000000     0.512600000000     0.771200000000     0          
H1436    H      0.461100000000     0.537400000000     0.772900000000     0          
C1437    C      0.429300000000     0.498800000000     0.732400000000     0          
H1438    H      0.433500000000     0.513100000000     0.708300000000     0          
C1439    C      0.385800000000     0.394400000000     0.648500000000     0          
C1440    C      0.461300000000     0.500900000000     0.845500000000     0          
O1441    O      0.215250000000     0.715250000000     0.784750000000     0          
O1442    O      0.293300000000     0.793300000000     0.706700000000     0          
O1443    O      0.284750000000     0.284750000000     0.284750000000     0          
O1444    O      0.206700000000     0.206700000000     0.206700000000     0          
O1445    O      0.784750000000     0.215250000000     0.715250000000     0          
O1446    O      0.706700000000     0.293300000000     0.793300000000     0          
O1447    O      0.715250000000     0.784750000000     0.215250000000     0          
O1448    O      0.793300000000     0.706700000000     0.293300000000     0          
O1449    O      0.965250000000     0.965250000000     0.965250000000     0          
O1450    O      0.043300000000     0.043300000000     0.043300000000     0          
O1451    O      0.534750000000     0.034750000000     0.465250000000     0          
O1452    O      0.456700000000     0.956700000000     0.543300000000     0          
O1453    O      0.465250000000     0.534750000000     0.034750000000     0          
O1454    O      0.543300000000     0.456700000000     0.956700000000     0          
O1455    O      0.034750000000     0.465250000000     0.534750000000     0          
O1456    O      0.956700000000     0.543300000000     0.456700000000     0          


