data_VIKRIT

_audit_creation_method RASPA-1.0
_audit_creation_date 2020-11-2
_audit_author_name 'Rocio Bueno-Perez'

_cell_length_a    32.9225
_cell_length_b    32.9225
_cell_length_c    32.9225
_cell_angle_alpha 90
_cell_angle_beta  90
_cell_angle_gamma 90
_cell_volume      35684.4

_symmetry_cell_setting          triclinic
_symmetry_space_group_name_Hall 'P 1'
_symmetry_space_group_name_H-M  'P 1'
_symmetry_Int_Tables_number     1

_symmetry_equiv_pos_as_xyz 'x,y,z'

loop_
_atom_site_label
_atom_site_type_symbol
_atom_site_fract_x
_atom_site_fract_y
_atom_site_fract_z
_atom_site_charge
Zr1      Zr     0.527510000000     0.471100000000     0.442960000000     0          
Zr2      Zr     0.733140000000     0.318680000000     0.209090000000     0          
O3       O      0.561300000000     0.506300000000     0.397800000000     0          
O4       O      0.570700000000     0.569300000000     0.418800000000     0          
O5       O      0.343300000000     0.760700000000     0.184400000000     0          
O6       O      0.362200000000     0.725200000000     0.239200000000     0          
C7       C      0.410400000000     0.732800000000     0.190900000000     0          
O8       O      0.583900000000     0.435500000000     0.429600000000     0          
H9       H      0.588200000000     0.414800000000     0.447500000000     0          
H10      H      0.606300000000     0.451300000000     0.431000000000     0          
O11      O      0.832500000000     0.355100000000     0.254400000000     0          
O12      O      0.740300000000     0.401400000000     0.282200000000     0          
C13      C      0.486100000000     0.718200000000     0.160300000000     0          
O14      O      0.704200000000     0.374100000000     0.229300000000     0          
C15      C      0.694200000000     0.442800000000     0.240800000000     0          
C16      C      0.583800000000     0.653200000000     0.143300000000     0          
O17      O      0.781300000000     0.371500000000     0.207300000000     0          
C18      C      0.548100000000     0.671400000000     0.162900000000     0          
H19      H      0.538800000000     0.661100000000     0.187600000000     0          
C20      C      0.480100000000     0.717800000000     0.203100000000     0          
H21      H      0.501300000000     0.712000000000     0.220800000000     0          
C22      C      0.659200000000     0.516500000000     0.217500000000     0          
C23      C      0.589800000000     0.592500000000     0.339800000000     0          
H24      H      0.587400000000     0.613600000000     0.358400000000     0          
C25      C      0.579800000000     0.520700000000     0.319800000000     0          
H26      H      0.573000000000     0.494100000000     0.326300000000     0          
C27      C      0.682800000000     0.514400000000     0.252300000000     0          
H28      H      0.686800000000     0.537400000000     0.268200000000     0          
C29      C      0.369600000000     0.740200000000     0.204600000000     0          
C30      C      0.589300000000     0.531300000000     0.280000000000     0          
H31      H      0.585800000000     0.511400000000     0.260300000000     0          
C32      C      0.570800000000     0.544900000000     0.390900000000     0          
C33      C      0.711400000000     0.404500000000     0.252600000000     0          
C34      C      0.653900000000     0.568700000000     0.163400000000     0          
H35      H      0.674100000000     0.554700000000     0.149500000000     0          
C36      C      0.634500000000     0.601400000000     0.145100000000     0          
C37      C      0.604300000000     0.622300000000     0.166000000000     0          
C38      C      0.593500000000     0.610500000000     0.205100000000     0          
H39      H      0.573300000000     0.624500000000     0.219000000000     0          
C40      C      0.613000000000     0.577800000000     0.223300000000     0          
C41      C      0.643200000000     0.556900000000     0.202500000000     0          
C42      C      0.602700000000     0.566900000000     0.267700000000     0          
C43      C      0.417200000000     0.734700000000     0.147800000000     0          
H44      H      0.396400000000     0.742300000000     0.130300000000     0          
C45      C      0.454800000000     0.725000000000     0.133100000000     0          
H46      H      0.459200000000     0.723100000000     0.105300000000     0          
C47      C      0.442900000000     0.726100000000     0.216500000000     0          
H48      H      0.438700000000     0.727400000000     0.244400000000     0          
C49      C      0.602700000000     0.599300000000     0.298700000000     0          
H50      H      0.611400000000     0.625200000000     0.291300000000     0          
C51      C      0.813700000000     0.376500000000     0.230100000000     0          
C52      C      0.700600000000     0.476900000000     0.263500000000     0          
H53      H      0.716900000000     0.475400000000     0.286500000000     0          
C54      C      0.580700000000     0.551200000000     0.350400000000     0          
C55      C      0.652500000000     0.482500000000     0.194100000000     0          
H56      H      0.637400000000     0.485100000000     0.170300000000     0          
C57      C      0.527600000000     0.704600000000     0.144600000000     0          
O58      O      0.574700000000     0.508000000000     0.476100000000     0          
O59      O      0.702900000000     0.277400000000     0.245000000000     0          
C60      C      0.829000000000     0.419600000000     0.224100000000     0          
H61      H      0.832200000000     0.432500000000     0.250100000000     0          
H62      H      0.809700000000     0.434600000000     0.208200000000     0          
H63      H      0.854600000000     0.419000000000     0.210300000000     0          
C64      C      0.668700000000     0.441300000000     0.205800000000     0          
H65      H      0.662800000000     0.417500000000     0.191700000000     0          
Zr66     Zr     0.972490000000     0.528900000000     0.942960000000     0          
Zr67     Zr     0.766860000000     0.681320000000     0.709090000000     0          
O68      O      0.938700000000     0.493700000000     0.897800000000     0          
O69      O      0.929300000000     0.430700000000     0.918800000000     0          
O70      O      0.156700000000     0.239300000000     0.684400000000     0          
O71      O      0.137800000000     0.274800000000     0.739200000000     0          
C72      C      0.089600000000     0.267200000000     0.690900000000     0          
O73      O      0.916100000000     0.564500000000     0.929600000000     0          
H74      H      0.911800000000     0.585200000000     0.947500000000     0          
H75      H      0.893700000000     0.548700000000     0.931000000000     0          
O76      O      0.667500000000     0.644900000000     0.754400000000     0          
O77      O      0.759700000000     0.598600000000     0.782200000000     0          
C78      C      0.013900000000     0.281800000000     0.660300000000     0          
O79      O      0.795800000000     0.625900000000     0.729300000000     0          
C80      C      0.805800000000     0.557200000000     0.740800000000     0          
C81      C      0.916200000000     0.346800000000     0.643300000000     0          
O82      O      0.718700000000     0.628500000000     0.707300000000     0          
C83      C      0.951900000000     0.328600000000     0.662900000000     0          
H84      H      0.961200000000     0.338900000000     0.687600000000     0          
C85      C      0.019900000000     0.282200000000     0.703100000000     0          
H86      H      0.998700000000     0.288000000000     0.720800000000     0          
C87      C      0.840800000000     0.483500000000     0.717500000000     0          
C88      C      0.910200000000     0.407500000000     0.839800000000     0          
H89      H      0.912600000000     0.386400000000     0.858400000000     0          
C90      C      0.920200000000     0.479300000000     0.819800000000     0          
H91      H      0.927000000000     0.505900000000     0.826300000000     0          
C92      C      0.817200000000     0.485600000000     0.752300000000     0          
H93      H      0.813200000000     0.462600000000     0.768200000000     0          
C94      C      0.130400000000     0.259800000000     0.704600000000     0          
C95      C      0.910700000000     0.468700000000     0.780000000000     0          
H96      H      0.914200000000     0.488600000000     0.760300000000     0          
C97      C      0.929200000000     0.455100000000     0.890900000000     0          
C98      C      0.788600000000     0.595500000000     0.752600000000     0          
C99      C      0.846100000000     0.431300000000     0.663400000000     0          
H100     H      0.825900000000     0.445300000000     0.649500000000     0          
C101     C      0.865500000000     0.398600000000     0.645100000000     0          
C102     C      0.895700000000     0.377700000000     0.666000000000     0          
C103     C      0.906500000000     0.389500000000     0.705100000000     0          
H104     H      0.926700000000     0.375500000000     0.719000000000     0          
C105     C      0.887000000000     0.422200000000     0.723300000000     0          
C106     C      0.856800000000     0.443100000000     0.702500000000     0          
C107     C      0.897300000000     0.433100000000     0.767700000000     0          
C108     C      0.082800000000     0.265300000000     0.647800000000     0          
H109     H      0.103600000000     0.257700000000     0.630300000000     0          
C110     C      0.045200000000     0.275000000000     0.633100000000     0          
H111     H      0.040800000000     0.276900000000     0.605300000000     0          
C112     C      0.057100000000     0.273900000000     0.716500000000     0          
H113     H      0.061300000000     0.272600000000     0.744400000000     0          
C114     C      0.897300000000     0.400700000000     0.798700000000     0          
H115     H      0.888600000000     0.374800000000     0.791300000000     0          
C116     C      0.686300000000     0.623500000000     0.730100000000     0          
C117     C      0.799400000000     0.523100000000     0.763500000000     0          
H118     H      0.783100000000     0.524600000000     0.786500000000     0          
C119     C      0.919300000000     0.448800000000     0.850400000000     0          
C120     C      0.847500000000     0.517500000000     0.694100000000     0          
H121     H      0.862600000000     0.514900000000     0.670300000000     0          
C122     C      0.972400000000     0.295400000000     0.644600000000     0          
O123     O      0.925300000000     0.492000000000     0.976100000000     0          
O124     O      0.797100000000     0.722600000000     0.745000000000     0          
C125     C      0.671000000000     0.580400000000     0.724100000000     0          
H126     H      0.667800000000     0.567500000000     0.750100000000     0          
H127     H      0.690300000000     0.565400000000     0.708200000000     0          
H128     H      0.645400000000     0.581000000000     0.710300000000     0          
C129     C      0.831300000000     0.558700000000     0.705800000000     0          
H130     H      0.837200000000     0.582500000000     0.691700000000     0          
Zr131    Zr     0.472490000000     0.971100000000     0.057040000000     0          
Zr132    Zr     0.266860000000     0.818680000000     0.290910000000     0          
O133     O      0.438700000000     0.006300000000     0.102200000000     0          
O134     O      0.429300000000     0.069300000000     0.081200000000     0          
O135     O      0.656700000000     0.260700000000     0.315600000000     0          
O136     O      0.637800000000     0.225200000000     0.260800000000     0          
C137     C      0.589600000000     0.232800000000     0.309100000000     0          
O138     O      0.416100000000     0.935500000000     0.070400000000     0          
H139     H      0.411800000000     0.914800000000     0.052500000000     0          
H140     H      0.393700000000     0.951300000000     0.069000000000     0          
O141     O      0.167500000000     0.855100000000     0.245600000000     0          
O142     O      0.259700000000     0.901400000000     0.217800000000     0          
C143     C      0.513900000000     0.218200000000     0.339700000000     0          
O144     O      0.295800000000     0.874100000000     0.270700000000     0          
C145     C      0.305800000000     0.942800000000     0.259200000000     0          
C146     C      0.416200000000     0.153200000000     0.356700000000     0          
O147     O      0.218700000000     0.871500000000     0.292700000000     0          
C148     C      0.451900000000     0.171400000000     0.337100000000     0          
H149     H      0.461200000000     0.161100000000     0.312400000000     0          
C150     C      0.519900000000     0.217800000000     0.296900000000     0          
H151     H      0.498700000000     0.212000000000     0.279200000000     0          
C152     C      0.340800000000     0.016500000000     0.282500000000     0          
C153     C      0.410200000000     0.092500000000     0.160200000000     0          
H154     H      0.412600000000     0.113600000000     0.141600000000     0          
C155     C      0.420200000000     0.020700000000     0.180200000000     0          
H156     H      0.427000000000     0.994100000000     0.173700000000     0          
C157     C      0.317200000000     0.014400000000     0.247700000000     0          
H158     H      0.313200000000     0.037400000000     0.231800000000     0          
C159     C      0.630400000000     0.240200000000     0.295400000000     0          
C160     C      0.410700000000     0.031300000000     0.220000000000     0          
H161     H      0.414200000000     0.011400000000     0.239700000000     0          
C162     C      0.429200000000     0.044900000000     0.109100000000     0          
C163     C      0.288600000000     0.904500000000     0.247400000000     0          
C164     C      0.346100000000     0.068700000000     0.336600000000     0          
H165     H      0.325900000000     0.054700000000     0.350500000000     0          
C166     C      0.365500000000     0.101400000000     0.354900000000     0          
C167     C      0.395700000000     0.122300000000     0.334000000000     0          
C168     C      0.406500000000     0.110500000000     0.294900000000     0          
H169     H      0.426700000000     0.124500000000     0.281000000000     0          
C170     C      0.387000000000     0.077800000000     0.276700000000     0          
C171     C      0.356800000000     0.056900000000     0.297500000000     0          
C172     C      0.397300000000     0.066900000000     0.232300000000     0          
C173     C      0.582800000000     0.234700000000     0.352200000000     0          
H174     H      0.603600000000     0.242300000000     0.369700000000     0          
C175     C      0.545200000000     0.225000000000     0.366900000000     0          
H176     H      0.540800000000     0.223100000000     0.394700000000     0          
C177     C      0.557100000000     0.226100000000     0.283500000000     0          
H178     H      0.561300000000     0.227400000000     0.255600000000     0          
C179     C      0.397300000000     0.099300000000     0.201300000000     0          
H180     H      0.388600000000     0.125200000000     0.208700000000     0          
C181     C      0.186300000000     0.876500000000     0.269900000000     0          
C182     C      0.299400000000     0.976900000000     0.236500000000     0          
H183     H      0.283100000000     0.975400000000     0.213500000000     0          
C184     C      0.419300000000     0.051200000000     0.149600000000     0          
C185     C      0.347500000000     0.982500000000     0.305900000000     0          
H186     H      0.362600000000     0.985100000000     0.329700000000     0          
C187     C      0.472400000000     0.204600000000     0.355400000000     0          
O188     O      0.425300000000     0.008000000000     0.023900000000     0          
O189     O      0.297100000000     0.777400000000     0.255000000000     0          
C190     C      0.171000000000     0.919600000000     0.275900000000     0          
H191     H      0.167800000000     0.932500000000     0.249900000000     0          
H192     H      0.190300000000     0.934600000000     0.291800000000     0          
H193     H      0.145400000000     0.919000000000     0.289700000000     0          
C194     C      0.331300000000     0.941300000000     0.294200000000     0          
H195     H      0.337200000000     0.917500000000     0.308300000000     0          
Zr196    Zr     0.027510000000     0.028900000000     0.557040000000     0          
Zr197    Zr     0.233140000000     0.181320000000     0.790910000000     0          
O198     O      0.061300000000     0.993700000000     0.602200000000     0          
O199     O      0.070700000000     0.930700000000     0.581200000000     0          
O200     O      0.843300000000     0.739300000000     0.815600000000     0          
O201     O      0.862200000000     0.774800000000     0.760800000000     0          
C202     C      0.910400000000     0.767200000000     0.809100000000     0          
O203     O      0.083900000000     0.064500000000     0.570400000000     0          
H204     H      0.088200000000     0.085200000000     0.552500000000     0          
H205     H      0.106300000000     0.048700000000     0.569000000000     0          
O206     O      0.332500000000     0.144900000000     0.745600000000     0          
O207     O      0.240300000000     0.098600000000     0.717800000000     0          
C208     C      0.986100000000     0.781800000000     0.839700000000     0          
O209     O      0.204200000000     0.125900000000     0.770700000000     0          
C210     C      0.194200000000     0.057200000000     0.759200000000     0          
C211     C      0.083800000000     0.846800000000     0.856700000000     0          
O212     O      0.281300000000     0.128500000000     0.792700000000     0          
C213     C      0.048100000000     0.828600000000     0.837100000000     0          
H214     H      0.038800000000     0.838900000000     0.812400000000     0          
C215     C      0.980100000000     0.782200000000     0.796900000000     0          
H216     H      0.001300000000     0.788000000000     0.779200000000     0          
C217     C      0.159200000000     0.983500000000     0.782500000000     0          
C218     C      0.089800000000     0.907500000000     0.660200000000     0          
H219     H      0.087400000000     0.886400000000     0.641600000000     0          
C220     C      0.079800000000     0.979300000000     0.680200000000     0          
H221     H      0.073000000000     0.005900000000     0.673700000000     0          
C222     C      0.182800000000     0.985600000000     0.747700000000     0          
H223     H      0.186800000000     0.962600000000     0.731800000000     0          
C224     C      0.869600000000     0.759800000000     0.795400000000     0          
C225     C      0.089300000000     0.968700000000     0.720000000000     0          
H226     H      0.085800000000     0.988600000000     0.739700000000     0          
C227     C      0.070800000000     0.955100000000     0.609100000000     0          
C228     C      0.211400000000     0.095500000000     0.747400000000     0          
C229     C      0.153900000000     0.931300000000     0.836600000000     0          
H230     H      0.174100000000     0.945300000000     0.850500000000     0          
C231     C      0.134500000000     0.898600000000     0.854900000000     0          
C232     C      0.104300000000     0.877700000000     0.834000000000     0          
C233     C      0.093500000000     0.889500000000     0.794900000000     0          
H234     H      0.073300000000     0.875500000000     0.781000000000     0          
C235     C      0.113000000000     0.922200000000     0.776700000000     0          
C236     C      0.143200000000     0.943100000000     0.797500000000     0          
C237     C      0.102700000000     0.933100000000     0.732300000000     0          
C238     C      0.917200000000     0.765300000000     0.852200000000     0          
H239     H      0.896400000000     0.757700000000     0.869700000000     0          
C240     C      0.954800000000     0.775000000000     0.866900000000     0          
H241     H      0.959200000000     0.776900000000     0.894700000000     0          
C242     C      0.942900000000     0.773900000000     0.783500000000     0          
H243     H      0.938700000000     0.772600000000     0.755600000000     0          
C244     C      0.102700000000     0.900700000000     0.701300000000     0          
H245     H      0.111400000000     0.874800000000     0.708700000000     0          
C246     C      0.313700000000     0.123500000000     0.769900000000     0          
C247     C      0.200600000000     0.023100000000     0.736500000000     0          
H248     H      0.216900000000     0.024600000000     0.713500000000     0          
C249     C      0.080700000000     0.948800000000     0.649600000000     0          
C250     C      0.152500000000     0.017500000000     0.805900000000     0          
H251     H      0.137400000000     0.014900000000     0.829700000000     0          
C252     C      0.027600000000     0.795400000000     0.855400000000     0          
O253     O      0.074700000000     0.992000000000     0.523900000000     0          
O254     O      0.202900000000     0.222600000000     0.755000000000     0          
C255     C      0.329000000000     0.080400000000     0.775900000000     0          
H256     H      0.332200000000     0.067500000000     0.749900000000     0          
H257     H      0.309700000000     0.065400000000     0.791800000000     0          
H258     H      0.354600000000     0.081000000000     0.789700000000     0          
C259     C      0.168700000000     0.058700000000     0.794200000000     0          
H260     H      0.162800000000     0.082500000000     0.808300000000     0          
Zr261    Zr     0.442960000000     0.527510000000     0.471100000000     0          
Zr262    Zr     0.209090000000     0.733140000000     0.318680000000     0          
O263     O      0.397800000000     0.561300000000     0.506300000000     0          
O264     O      0.418800000000     0.570700000000     0.569300000000     0          
O265     O      0.184400000000     0.343300000000     0.760700000000     0          
O266     O      0.239200000000     0.362200000000     0.725200000000     0          
C267     C      0.190900000000     0.410400000000     0.732800000000     0          
O268     O      0.429600000000     0.583900000000     0.435500000000     0          
H269     H      0.447500000000     0.588200000000     0.414800000000     0          
H270     H      0.431000000000     0.606300000000     0.451300000000     0          
O271     O      0.254400000000     0.832500000000     0.355100000000     0          
O272     O      0.282200000000     0.740300000000     0.401400000000     0          
C273     C      0.160300000000     0.486100000000     0.718200000000     0          
O274     O      0.229300000000     0.704200000000     0.374100000000     0          
C275     C      0.240800000000     0.694200000000     0.442800000000     0          
C276     C      0.143300000000     0.583800000000     0.653200000000     0          
O277     O      0.207300000000     0.781300000000     0.371500000000     0          
C278     C      0.162900000000     0.548100000000     0.671400000000     0          
H279     H      0.187600000000     0.538800000000     0.661100000000     0          
C280     C      0.203100000000     0.480100000000     0.717800000000     0          
H281     H      0.220800000000     0.501300000000     0.712000000000     0          
C282     C      0.217500000000     0.659200000000     0.516500000000     0          
C283     C      0.339800000000     0.589800000000     0.592500000000     0          
H284     H      0.358400000000     0.587400000000     0.613600000000     0          
C285     C      0.319800000000     0.579800000000     0.520700000000     0          
H286     H      0.326300000000     0.573000000000     0.494100000000     0          
C287     C      0.252300000000     0.682800000000     0.514400000000     0          
H288     H      0.268200000000     0.686800000000     0.537400000000     0          
C289     C      0.204600000000     0.369600000000     0.740200000000     0          
C290     C      0.280000000000     0.589300000000     0.531300000000     0          
H291     H      0.260300000000     0.585800000000     0.511400000000     0          
C292     C      0.390900000000     0.570800000000     0.544900000000     0          
C293     C      0.252600000000     0.711400000000     0.404500000000     0          
C294     C      0.163400000000     0.653900000000     0.568700000000     0          
H295     H      0.149500000000     0.674100000000     0.554700000000     0          
C296     C      0.145100000000     0.634500000000     0.601400000000     0          
C297     C      0.166000000000     0.604300000000     0.622300000000     0          
C298     C      0.205100000000     0.593500000000     0.610500000000     0          
H299     H      0.219000000000     0.573300000000     0.624500000000     0          
C300     C      0.223300000000     0.613000000000     0.577800000000     0          
C301     C      0.202500000000     0.643200000000     0.556900000000     0          
C302     C      0.267700000000     0.602700000000     0.566900000000     0          
C303     C      0.147800000000     0.417200000000     0.734700000000     0          
H304     H      0.130300000000     0.396400000000     0.742300000000     0          
C305     C      0.133100000000     0.454800000000     0.725000000000     0          
H306     H      0.105300000000     0.459200000000     0.723100000000     0          
C307     C      0.216500000000     0.442900000000     0.726100000000     0          
H308     H      0.244400000000     0.438700000000     0.727400000000     0          
C309     C      0.298700000000     0.602700000000     0.599300000000     0          
H310     H      0.291300000000     0.611400000000     0.625200000000     0          
C311     C      0.230100000000     0.813700000000     0.376500000000     0          
C312     C      0.263500000000     0.700600000000     0.476900000000     0          
H313     H      0.286500000000     0.716900000000     0.475400000000     0          
C314     C      0.350400000000     0.580700000000     0.551200000000     0          
C315     C      0.194100000000     0.652500000000     0.482500000000     0          
H316     H      0.170300000000     0.637400000000     0.485100000000     0          
C317     C      0.144600000000     0.527600000000     0.704600000000     0          
O318     O      0.476100000000     0.574700000000     0.508000000000     0          
O319     O      0.245000000000     0.702900000000     0.277400000000     0          
C320     C      0.224100000000     0.829000000000     0.419600000000     0          
H321     H      0.250100000000     0.832200000000     0.432500000000     0          
H322     H      0.208200000000     0.809700000000     0.434600000000     0          
H323     H      0.210300000000     0.854600000000     0.419000000000     0          
C324     C      0.205800000000     0.668700000000     0.441300000000     0          
H325     H      0.191700000000     0.662800000000     0.417500000000     0          
Zr326    Zr     0.942960000000     0.972490000000     0.528900000000     0          
Zr327    Zr     0.709090000000     0.766860000000     0.681320000000     0          
O328     O      0.897800000000     0.938700000000     0.493700000000     0          
O329     O      0.918800000000     0.929300000000     0.430700000000     0          
O330     O      0.684400000000     0.156700000000     0.239300000000     0          
O331     O      0.739200000000     0.137800000000     0.274800000000     0          
C332     C      0.690900000000     0.089600000000     0.267200000000     0          
O333     O      0.929600000000     0.916100000000     0.564500000000     0          
H334     H      0.947500000000     0.911800000000     0.585200000000     0          
H335     H      0.931000000000     0.893700000000     0.548700000000     0          
O336     O      0.754400000000     0.667500000000     0.644900000000     0          
O337     O      0.782200000000     0.759700000000     0.598600000000     0          
C338     C      0.660300000000     0.013900000000     0.281800000000     0          
O339     O      0.729300000000     0.795800000000     0.625900000000     0          
C340     C      0.740800000000     0.805800000000     0.557200000000     0          
C341     C      0.643300000000     0.916200000000     0.346800000000     0          
O342     O      0.707300000000     0.718700000000     0.628500000000     0          
C343     C      0.662900000000     0.951900000000     0.328600000000     0          
H344     H      0.687600000000     0.961200000000     0.338900000000     0          
C345     C      0.703100000000     0.019900000000     0.282200000000     0          
H346     H      0.720800000000     0.998700000000     0.288000000000     0          
C347     C      0.717500000000     0.840800000000     0.483500000000     0          
C348     C      0.839800000000     0.910200000000     0.407500000000     0          
H349     H      0.858400000000     0.912600000000     0.386400000000     0          
C350     C      0.819800000000     0.920200000000     0.479300000000     0          
H351     H      0.826300000000     0.927000000000     0.505900000000     0          
C352     C      0.752300000000     0.817200000000     0.485600000000     0          
H353     H      0.768200000000     0.813200000000     0.462600000000     0          
C354     C      0.704600000000     0.130400000000     0.259800000000     0          
C355     C      0.780000000000     0.910700000000     0.468700000000     0          
H356     H      0.760300000000     0.914200000000     0.488600000000     0          
C357     C      0.890900000000     0.929200000000     0.455100000000     0          
C358     C      0.752600000000     0.788600000000     0.595500000000     0          
C359     C      0.663400000000     0.846100000000     0.431300000000     0          
H360     H      0.649500000000     0.825900000000     0.445300000000     0          
C361     C      0.645100000000     0.865500000000     0.398600000000     0          
C362     C      0.666000000000     0.895700000000     0.377700000000     0          
C363     C      0.705100000000     0.906500000000     0.389500000000     0          
H364     H      0.719000000000     0.926700000000     0.375500000000     0          
C365     C      0.723300000000     0.887000000000     0.422200000000     0          
C366     C      0.702500000000     0.856800000000     0.443100000000     0          
C367     C      0.767700000000     0.897300000000     0.433100000000     0          
C368     C      0.647800000000     0.082800000000     0.265300000000     0          
H369     H      0.630300000000     0.103600000000     0.257700000000     0          
C370     C      0.633100000000     0.045200000000     0.275000000000     0          
H371     H      0.605300000000     0.040800000000     0.276900000000     0          
C372     C      0.716500000000     0.057100000000     0.273900000000     0          
H373     H      0.744400000000     0.061300000000     0.272600000000     0          
C374     C      0.798700000000     0.897300000000     0.400700000000     0          
H375     H      0.791300000000     0.888600000000     0.374800000000     0          
C376     C      0.730100000000     0.686300000000     0.623500000000     0          
C377     C      0.763500000000     0.799400000000     0.523100000000     0          
H378     H      0.786500000000     0.783100000000     0.524600000000     0          
C379     C      0.850400000000     0.919300000000     0.448800000000     0          
C380     C      0.694100000000     0.847500000000     0.517500000000     0          
H381     H      0.670300000000     0.862600000000     0.514900000000     0          
C382     C      0.644600000000     0.972400000000     0.295400000000     0          
O383     O      0.976100000000     0.925300000000     0.492000000000     0          
O384     O      0.745000000000     0.797100000000     0.722600000000     0          
C385     C      0.724100000000     0.671000000000     0.580400000000     0          
H386     H      0.750100000000     0.667800000000     0.567500000000     0          
H387     H      0.708200000000     0.690300000000     0.565400000000     0          
H388     H      0.710300000000     0.645400000000     0.581000000000     0          
C389     C      0.705800000000     0.831300000000     0.558700000000     0          
H390     H      0.691700000000     0.837200000000     0.582500000000     0          
Zr391    Zr     0.057040000000     0.472490000000     0.971100000000     0          
Zr392    Zr     0.290910000000     0.266860000000     0.818680000000     0          
O393     O      0.102200000000     0.438700000000     0.006300000000     0          
O394     O      0.081200000000     0.429300000000     0.069300000000     0          
O395     O      0.315600000000     0.656700000000     0.260700000000     0          
O396     O      0.260800000000     0.637800000000     0.225200000000     0          
C397     C      0.309100000000     0.589600000000     0.232800000000     0          
O398     O      0.070400000000     0.416100000000     0.935500000000     0          
H399     H      0.052500000000     0.411800000000     0.914800000000     0          
H400     H      0.069000000000     0.393700000000     0.951300000000     0          
O401     O      0.245600000000     0.167500000000     0.855100000000     0          
O402     O      0.217800000000     0.259700000000     0.901400000000     0          
C403     C      0.339700000000     0.513900000000     0.218200000000     0          
O404     O      0.270700000000     0.295800000000     0.874100000000     0          
C405     C      0.259200000000     0.305800000000     0.942800000000     0          
C406     C      0.356700000000     0.416200000000     0.153200000000     0          
O407     O      0.292700000000     0.218700000000     0.871500000000     0          
C408     C      0.337100000000     0.451900000000     0.171400000000     0          
H409     H      0.312400000000     0.461200000000     0.161100000000     0          
C410     C      0.296900000000     0.519900000000     0.217800000000     0          
H411     H      0.279200000000     0.498700000000     0.212000000000     0          
C412     C      0.282500000000     0.340800000000     0.016500000000     0          
C413     C      0.160200000000     0.410200000000     0.092500000000     0          
H414     H      0.141600000000     0.412600000000     0.113600000000     0          
C415     C      0.180200000000     0.420200000000     0.020700000000     0          
H416     H      0.173700000000     0.427000000000     0.994100000000     0          
C417     C      0.247700000000     0.317200000000     0.014400000000     0          
H418     H      0.231800000000     0.313200000000     0.037400000000     0          
C419     C      0.295400000000     0.630400000000     0.240200000000     0          
C420     C      0.220000000000     0.410700000000     0.031300000000     0          
H421     H      0.239700000000     0.414200000000     0.011400000000     0          
C422     C      0.109100000000     0.429200000000     0.044900000000     0          
C423     C      0.247400000000     0.288600000000     0.904500000000     0          
C424     C      0.336600000000     0.346100000000     0.068700000000     0          
H425     H      0.350500000000     0.325900000000     0.054700000000     0          
C426     C      0.354900000000     0.365500000000     0.101400000000     0          
C427     C      0.334000000000     0.395700000000     0.122300000000     0          
C428     C      0.294900000000     0.406500000000     0.110500000000     0          
H429     H      0.281000000000     0.426700000000     0.124500000000     0          
C430     C      0.276700000000     0.387000000000     0.077800000000     0          
C431     C      0.297500000000     0.356800000000     0.056900000000     0          
C432     C      0.232300000000     0.397300000000     0.066900000000     0          
C433     C      0.352200000000     0.582800000000     0.234700000000     0          
H434     H      0.369700000000     0.603600000000     0.242300000000     0          
C435     C      0.366900000000     0.545200000000     0.225000000000     0          
H436     H      0.394700000000     0.540800000000     0.223100000000     0          
C437     C      0.283500000000     0.557100000000     0.226100000000     0          
H438     H      0.255600000000     0.561300000000     0.227400000000     0          
C439     C      0.201300000000     0.397300000000     0.099300000000     0          
H440     H      0.208700000000     0.388600000000     0.125200000000     0          
C441     C      0.269900000000     0.186300000000     0.876500000000     0          
C442     C      0.236500000000     0.299400000000     0.976900000000     0          
H443     H      0.213500000000     0.283100000000     0.975400000000     0          
C444     C      0.149600000000     0.419300000000     0.051200000000     0          
C445     C      0.305900000000     0.347500000000     0.982500000000     0          
H446     H      0.329700000000     0.362600000000     0.985100000000     0          
C447     C      0.355400000000     0.472400000000     0.204600000000     0          
O448     O      0.023900000000     0.425300000000     0.008000000000     0          
O449     O      0.255000000000     0.297100000000     0.777400000000     0          
C450     C      0.275900000000     0.171000000000     0.919600000000     0          
H451     H      0.249900000000     0.167800000000     0.932500000000     0          
H452     H      0.291800000000     0.190300000000     0.934600000000     0          
H453     H      0.289700000000     0.145400000000     0.919000000000     0          
C454     C      0.294200000000     0.331300000000     0.941300000000     0          
H455     H      0.308300000000     0.337200000000     0.917500000000     0          
Zr456    Zr     0.557040000000     0.027510000000     0.028900000000     0          
Zr457    Zr     0.790910000000     0.233140000000     0.181320000000     0          
O458     O      0.602200000000     0.061300000000     0.993700000000     0          
O459     O      0.581200000000     0.070700000000     0.930700000000     0          
O460     O      0.815600000000     0.843300000000     0.739300000000     0          
O461     O      0.760800000000     0.862200000000     0.774800000000     0          
C462     C      0.809100000000     0.910400000000     0.767200000000     0          
O463     O      0.570400000000     0.083900000000     0.064500000000     0          
H464     H      0.552500000000     0.088200000000     0.085200000000     0          
H465     H      0.569000000000     0.106300000000     0.048700000000     0          
O466     O      0.745600000000     0.332500000000     0.144900000000     0          
O467     O      0.717800000000     0.240300000000     0.098600000000     0          
C468     C      0.839700000000     0.986100000000     0.781800000000     0          
O469     O      0.770700000000     0.204200000000     0.125900000000     0          
C470     C      0.759200000000     0.194200000000     0.057200000000     0          
C471     C      0.856700000000     0.083800000000     0.846800000000     0          
O472     O      0.792700000000     0.281300000000     0.128500000000     0          
C473     C      0.837100000000     0.048100000000     0.828600000000     0          
H474     H      0.812400000000     0.038800000000     0.838900000000     0          
C475     C      0.796900000000     0.980100000000     0.782200000000     0          
H476     H      0.779200000000     0.001300000000     0.788000000000     0          
C477     C      0.782500000000     0.159200000000     0.983500000000     0          
C478     C      0.660200000000     0.089800000000     0.907500000000     0          
H479     H      0.641600000000     0.087400000000     0.886400000000     0          
C480     C      0.680200000000     0.079800000000     0.979300000000     0          
H481     H      0.673700000000     0.073000000000     0.005900000000     0          
C482     C      0.747700000000     0.182800000000     0.985600000000     0          
H483     H      0.731800000000     0.186800000000     0.962600000000     0          
C484     C      0.795400000000     0.869600000000     0.759800000000     0          
C485     C      0.720000000000     0.089300000000     0.968700000000     0          
H486     H      0.739700000000     0.085800000000     0.988600000000     0          
C487     C      0.609100000000     0.070800000000     0.955100000000     0          
C488     C      0.747400000000     0.211400000000     0.095500000000     0          
C489     C      0.836600000000     0.153900000000     0.931300000000     0          
H490     H      0.850500000000     0.174100000000     0.945300000000     0          
C491     C      0.854900000000     0.134500000000     0.898600000000     0          
C492     C      0.834000000000     0.104300000000     0.877700000000     0          
C493     C      0.794900000000     0.093500000000     0.889500000000     0          
H494     H      0.781000000000     0.073300000000     0.875500000000     0          
C495     C      0.776700000000     0.113000000000     0.922200000000     0          
C496     C      0.797500000000     0.143200000000     0.943100000000     0          
C497     C      0.732300000000     0.102700000000     0.933100000000     0          
C498     C      0.852200000000     0.917200000000     0.765300000000     0          
H499     H      0.869700000000     0.896400000000     0.757700000000     0          
C500     C      0.866900000000     0.954800000000     0.775000000000     0          
H501     H      0.894700000000     0.959200000000     0.776900000000     0          
C502     C      0.783500000000     0.942900000000     0.773900000000     0          
H503     H      0.755600000000     0.938700000000     0.772600000000     0          
C504     C      0.701300000000     0.102700000000     0.900700000000     0          
H505     H      0.708700000000     0.111400000000     0.874800000000     0          
C506     C      0.769900000000     0.313700000000     0.123500000000     0          
C507     C      0.736500000000     0.200600000000     0.023100000000     0          
H508     H      0.713500000000     0.216900000000     0.024600000000     0          
C509     C      0.649600000000     0.080700000000     0.948800000000     0          
C510     C      0.805900000000     0.152500000000     0.017500000000     0          
H511     H      0.829700000000     0.137400000000     0.014900000000     0          
C512     C      0.855400000000     0.027600000000     0.795400000000     0          
O513     O      0.523900000000     0.074700000000     0.992000000000     0          
O514     O      0.755000000000     0.202900000000     0.222600000000     0          
C515     C      0.775900000000     0.329000000000     0.080400000000     0          
H516     H      0.749900000000     0.332200000000     0.067500000000     0          
H517     H      0.791800000000     0.309700000000     0.065400000000     0          
H518     H      0.789700000000     0.354600000000     0.081000000000     0          
C519     C      0.794200000000     0.168700000000     0.058700000000     0          
H520     H      0.808300000000     0.162800000000     0.082500000000     0          
Zr521    Zr     0.471100000000     0.442960000000     0.527510000000     0          
Zr522    Zr     0.318680000000     0.209090000000     0.733140000000     0          
O523     O      0.506300000000     0.397800000000     0.561300000000     0          
O524     O      0.569300000000     0.418800000000     0.570700000000     0          
O525     O      0.760700000000     0.184400000000     0.343300000000     0          
O526     O      0.725200000000     0.239200000000     0.362200000000     0          
C527     C      0.732800000000     0.190900000000     0.410400000000     0          
O528     O      0.435500000000     0.429600000000     0.583900000000     0          
H529     H      0.414800000000     0.447500000000     0.588200000000     0          
H530     H      0.451300000000     0.431000000000     0.606300000000     0          
O531     O      0.355100000000     0.254400000000     0.832500000000     0          
O532     O      0.401400000000     0.282200000000     0.740300000000     0          
C533     C      0.718200000000     0.160300000000     0.486100000000     0          
O534     O      0.374100000000     0.229300000000     0.704200000000     0          
C535     C      0.442800000000     0.240800000000     0.694200000000     0          
C536     C      0.653200000000     0.143300000000     0.583800000000     0          
O537     O      0.371500000000     0.207300000000     0.781300000000     0          
C538     C      0.671400000000     0.162900000000     0.548100000000     0          
H539     H      0.661100000000     0.187600000000     0.538800000000     0          
C540     C      0.717800000000     0.203100000000     0.480100000000     0          
H541     H      0.712000000000     0.220800000000     0.501300000000     0          
C542     C      0.516500000000     0.217500000000     0.659200000000     0          
C543     C      0.592500000000     0.339800000000     0.589800000000     0          
H544     H      0.613600000000     0.358400000000     0.587400000000     0          
C545     C      0.520700000000     0.319800000000     0.579800000000     0          
H546     H      0.494100000000     0.326300000000     0.573000000000     0          
C547     C      0.514400000000     0.252300000000     0.682800000000     0          
H548     H      0.537400000000     0.268200000000     0.686800000000     0          
C549     C      0.740200000000     0.204600000000     0.369600000000     0          
C550     C      0.531300000000     0.280000000000     0.589300000000     0          
H551     H      0.511400000000     0.260300000000     0.585800000000     0          
C552     C      0.544900000000     0.390900000000     0.570800000000     0          
C553     C      0.404500000000     0.252600000000     0.711400000000     0          
C554     C      0.568700000000     0.163400000000     0.653900000000     0          
H555     H      0.554700000000     0.149500000000     0.674100000000     0          
C556     C      0.601400000000     0.145100000000     0.634500000000     0          
C557     C      0.622300000000     0.166000000000     0.604300000000     0          
C558     C      0.610500000000     0.205100000000     0.593500000000     0          
H559     H      0.624500000000     0.219000000000     0.573300000000     0          
C560     C      0.577800000000     0.223300000000     0.613000000000     0          
C561     C      0.556900000000     0.202500000000     0.643200000000     0          
C562     C      0.566900000000     0.267700000000     0.602700000000     0          
C563     C      0.734700000000     0.147800000000     0.417200000000     0          
H564     H      0.742300000000     0.130300000000     0.396400000000     0          
C565     C      0.725000000000     0.133100000000     0.454800000000     0          
H566     H      0.723100000000     0.105300000000     0.459200000000     0          
C567     C      0.726100000000     0.216500000000     0.442900000000     0          
H568     H      0.727400000000     0.244400000000     0.438700000000     0          
C569     C      0.599300000000     0.298700000000     0.602700000000     0          
H570     H      0.625200000000     0.291300000000     0.611400000000     0          
C571     C      0.376500000000     0.230100000000     0.813700000000     0          
C572     C      0.476900000000     0.263500000000     0.700600000000     0          
H573     H      0.475400000000     0.286500000000     0.716900000000     0          
C574     C      0.551200000000     0.350400000000     0.580700000000     0          
C575     C      0.482500000000     0.194100000000     0.652500000000     0          
H576     H      0.485100000000     0.170300000000     0.637400000000     0          
C577     C      0.704600000000     0.144600000000     0.527600000000     0          
O578     O      0.508000000000     0.476100000000     0.574700000000     0          
O579     O      0.277400000000     0.245000000000     0.702900000000     0          
C580     C      0.419600000000     0.224100000000     0.829000000000     0          
H581     H      0.432500000000     0.250100000000     0.832200000000     0          
H582     H      0.434600000000     0.208200000000     0.809700000000     0          
H583     H      0.419000000000     0.210300000000     0.854600000000     0          
C584     C      0.441300000000     0.205800000000     0.668700000000     0          
H585     H      0.417500000000     0.191700000000     0.662800000000     0          
Zr586    Zr     0.528900000000     0.942960000000     0.972490000000     0          
Zr587    Zr     0.681320000000     0.709090000000     0.766860000000     0          
O588     O      0.493700000000     0.897800000000     0.938700000000     0          
O589     O      0.430700000000     0.918800000000     0.929300000000     0          
O590     O      0.239300000000     0.684400000000     0.156700000000     0          
O591     O      0.274800000000     0.739200000000     0.137800000000     0          
C592     C      0.267200000000     0.690900000000     0.089600000000     0          
O593     O      0.564500000000     0.929600000000     0.916100000000     0          
H594     H      0.585200000000     0.947500000000     0.911800000000     0          
H595     H      0.548700000000     0.931000000000     0.893700000000     0          
O596     O      0.644900000000     0.754400000000     0.667500000000     0          
O597     O      0.598600000000     0.782200000000     0.759700000000     0          
C598     C      0.281800000000     0.660300000000     0.013900000000     0          
O599     O      0.625900000000     0.729300000000     0.795800000000     0          
C600     C      0.557200000000     0.740800000000     0.805800000000     0          
C601     C      0.346800000000     0.643300000000     0.916200000000     0          
O602     O      0.628500000000     0.707300000000     0.718700000000     0          
C603     C      0.328600000000     0.662900000000     0.951900000000     0          
H604     H      0.338900000000     0.687600000000     0.961200000000     0          
C605     C      0.282200000000     0.703100000000     0.019900000000     0          
H606     H      0.288000000000     0.720800000000     0.998700000000     0          
C607     C      0.483500000000     0.717500000000     0.840800000000     0          
C608     C      0.407500000000     0.839800000000     0.910200000000     0          
H609     H      0.386400000000     0.858400000000     0.912600000000     0          
C610     C      0.479300000000     0.819800000000     0.920200000000     0          
H611     H      0.505900000000     0.826300000000     0.927000000000     0          
C612     C      0.485600000000     0.752300000000     0.817200000000     0          
H613     H      0.462600000000     0.768200000000     0.813200000000     0          
C614     C      0.259800000000     0.704600000000     0.130400000000     0          
C615     C      0.468700000000     0.780000000000     0.910700000000     0          
H616     H      0.488600000000     0.760300000000     0.914200000000     0          
C617     C      0.455100000000     0.890900000000     0.929200000000     0          
C618     C      0.595500000000     0.752600000000     0.788600000000     0          
C619     C      0.431300000000     0.663400000000     0.846100000000     0          
H620     H      0.445300000000     0.649500000000     0.825900000000     0          
C621     C      0.398600000000     0.645100000000     0.865500000000     0          
C622     C      0.377700000000     0.666000000000     0.895700000000     0          
C623     C      0.389500000000     0.705100000000     0.906500000000     0          
H624     H      0.375500000000     0.719000000000     0.926700000000     0          
C625     C      0.422200000000     0.723300000000     0.887000000000     0          
C626     C      0.443100000000     0.702500000000     0.856800000000     0          
C627     C      0.433100000000     0.767700000000     0.897300000000     0          
C628     C      0.265300000000     0.647800000000     0.082800000000     0          
H629     H      0.257700000000     0.630300000000     0.103600000000     0          
C630     C      0.275000000000     0.633100000000     0.045200000000     0          
H631     H      0.276900000000     0.605300000000     0.040800000000     0          
C632     C      0.273900000000     0.716500000000     0.057100000000     0          
H633     H      0.272600000000     0.744400000000     0.061300000000     0          
C634     C      0.400700000000     0.798700000000     0.897300000000     0          
H635     H      0.374800000000     0.791300000000     0.888600000000     0          
C636     C      0.623500000000     0.730100000000     0.686300000000     0          
C637     C      0.523100000000     0.763500000000     0.799400000000     0          
H638     H      0.524600000000     0.786500000000     0.783100000000     0          
C639     C      0.448800000000     0.850400000000     0.919300000000     0          
C640     C      0.517500000000     0.694100000000     0.847500000000     0          
H641     H      0.514900000000     0.670300000000     0.862600000000     0          
C642     C      0.295400000000     0.644600000000     0.972400000000     0          
O643     O      0.492000000000     0.976100000000     0.925300000000     0          
O644     O      0.722600000000     0.745000000000     0.797100000000     0          
C645     C      0.580400000000     0.724100000000     0.671000000000     0          
H646     H      0.567500000000     0.750100000000     0.667800000000     0          
H647     H      0.565400000000     0.708200000000     0.690300000000     0          
H648     H      0.581000000000     0.710300000000     0.645400000000     0          
C649     C      0.558700000000     0.705800000000     0.831300000000     0          
H650     H      0.582500000000     0.691700000000     0.837200000000     0          
Zr651    Zr     0.971100000000     0.057040000000     0.472490000000     0          
Zr652    Zr     0.818680000000     0.290910000000     0.266860000000     0          
O653     O      0.006300000000     0.102200000000     0.438700000000     0          
O654     O      0.069300000000     0.081200000000     0.429300000000     0          
O655     O      0.260700000000     0.315600000000     0.656700000000     0          
O656     O      0.225200000000     0.260800000000     0.637800000000     0          
C657     C      0.232800000000     0.309100000000     0.589600000000     0          
O658     O      0.935500000000     0.070400000000     0.416100000000     0          
H659     H      0.914800000000     0.052500000000     0.411800000000     0          
H660     H      0.951300000000     0.069000000000     0.393700000000     0          
O661     O      0.855100000000     0.245600000000     0.167500000000     0          
O662     O      0.901400000000     0.217800000000     0.259700000000     0          
C663     C      0.218200000000     0.339700000000     0.513900000000     0          
O664     O      0.874100000000     0.270700000000     0.295800000000     0          
C665     C      0.942800000000     0.259200000000     0.305800000000     0          
C666     C      0.153200000000     0.356700000000     0.416200000000     0          
O667     O      0.871500000000     0.292700000000     0.218700000000     0          
C668     C      0.171400000000     0.337100000000     0.451900000000     0          
H669     H      0.161100000000     0.312400000000     0.461200000000     0          
C670     C      0.217800000000     0.296900000000     0.519900000000     0          
H671     H      0.212000000000     0.279200000000     0.498700000000     0          
C672     C      0.016500000000     0.282500000000     0.340800000000     0          
C673     C      0.092500000000     0.160200000000     0.410200000000     0          
H674     H      0.113600000000     0.141600000000     0.412600000000     0          
C675     C      0.020700000000     0.180200000000     0.420200000000     0          
H676     H      0.994100000000     0.173700000000     0.427000000000     0          
C677     C      0.014400000000     0.247700000000     0.317200000000     0          
H678     H      0.037400000000     0.231800000000     0.313200000000     0          
C679     C      0.240200000000     0.295400000000     0.630400000000     0          
C680     C      0.031300000000     0.220000000000     0.410700000000     0          
H681     H      0.011400000000     0.239700000000     0.414200000000     0          
C682     C      0.044900000000     0.109100000000     0.429200000000     0          
C683     C      0.904500000000     0.247400000000     0.288600000000     0          
C684     C      0.068700000000     0.336600000000     0.346100000000     0          
H685     H      0.054700000000     0.350500000000     0.325900000000     0          
C686     C      0.101400000000     0.354900000000     0.365500000000     0          
C687     C      0.122300000000     0.334000000000     0.395700000000     0          
C688     C      0.110500000000     0.294900000000     0.406500000000     0          
H689     H      0.124500000000     0.281000000000     0.426700000000     0          
C690     C      0.077800000000     0.276700000000     0.387000000000     0          
C691     C      0.056900000000     0.297500000000     0.356800000000     0          
C692     C      0.066900000000     0.232300000000     0.397300000000     0          
C693     C      0.234700000000     0.352200000000     0.582800000000     0          
H694     H      0.242300000000     0.369700000000     0.603600000000     0          
C695     C      0.225000000000     0.366900000000     0.545200000000     0          
H696     H      0.223100000000     0.394700000000     0.540800000000     0          
C697     C      0.226100000000     0.283500000000     0.557100000000     0          
H698     H      0.227400000000     0.255600000000     0.561300000000     0          
C699     C      0.099300000000     0.201300000000     0.397300000000     0          
H700     H      0.125200000000     0.208700000000     0.388600000000     0          
C701     C      0.876500000000     0.269900000000     0.186300000000     0          
C702     C      0.976900000000     0.236500000000     0.299400000000     0          
H703     H      0.975400000000     0.213500000000     0.283100000000     0          
C704     C      0.051200000000     0.149600000000     0.419300000000     0          
C705     C      0.982500000000     0.305900000000     0.347500000000     0          
H706     H      0.985100000000     0.329700000000     0.362600000000     0          
C707     C      0.204600000000     0.355400000000     0.472400000000     0          
O708     O      0.008000000000     0.023900000000     0.425300000000     0          
O709     O      0.777400000000     0.255000000000     0.297100000000     0          
C710     C      0.919600000000     0.275900000000     0.171000000000     0          
H711     H      0.932500000000     0.249900000000     0.167800000000     0          
H712     H      0.934600000000     0.291800000000     0.190300000000     0          
H713     H      0.919000000000     0.289700000000     0.145400000000     0          
C714     C      0.941300000000     0.294200000000     0.331300000000     0          
H715     H      0.917500000000     0.308300000000     0.337200000000     0          
Zr716    Zr     0.028900000000     0.557040000000     0.027510000000     0          
Zr717    Zr     0.181320000000     0.790910000000     0.233140000000     0          
O718     O      0.993700000000     0.602200000000     0.061300000000     0          
O719     O      0.930700000000     0.581200000000     0.070700000000     0          
O720     O      0.739300000000     0.815600000000     0.843300000000     0          
O721     O      0.774800000000     0.760800000000     0.862200000000     0          
C722     C      0.767200000000     0.809100000000     0.910400000000     0          
O723     O      0.064500000000     0.570400000000     0.083900000000     0          
H724     H      0.085200000000     0.552500000000     0.088200000000     0          
H725     H      0.048700000000     0.569000000000     0.106300000000     0          
O726     O      0.144900000000     0.745600000000     0.332500000000     0          
O727     O      0.098600000000     0.717800000000     0.240300000000     0          
C728     C      0.781800000000     0.839700000000     0.986100000000     0          
O729     O      0.125900000000     0.770700000000     0.204200000000     0          
C730     C      0.057200000000     0.759200000000     0.194200000000     0          
C731     C      0.846800000000     0.856700000000     0.083800000000     0          
O732     O      0.128500000000     0.792700000000     0.281300000000     0          
C733     C      0.828600000000     0.837100000000     0.048100000000     0          
H734     H      0.838900000000     0.812400000000     0.038800000000     0          
C735     C      0.782200000000     0.796900000000     0.980100000000     0          
H736     H      0.788000000000     0.779200000000     0.001300000000     0          
C737     C      0.983500000000     0.782500000000     0.159200000000     0          
C738     C      0.907500000000     0.660200000000     0.089800000000     0          
H739     H      0.886400000000     0.641600000000     0.087400000000     0          
C740     C      0.979300000000     0.680200000000     0.079800000000     0          
H741     H      0.005900000000     0.673700000000     0.073000000000     0          
C742     C      0.985600000000     0.747700000000     0.182800000000     0          
H743     H      0.962600000000     0.731800000000     0.186800000000     0          
C744     C      0.759800000000     0.795400000000     0.869600000000     0          
C745     C      0.968700000000     0.720000000000     0.089300000000     0          
H746     H      0.988600000000     0.739700000000     0.085800000000     0          
C747     C      0.955100000000     0.609100000000     0.070800000000     0          
C748     C      0.095500000000     0.747400000000     0.211400000000     0          
C749     C      0.931300000000     0.836600000000     0.153900000000     0          
H750     H      0.945300000000     0.850500000000     0.174100000000     0          
C751     C      0.898600000000     0.854900000000     0.134500000000     0          
C752     C      0.877700000000     0.834000000000     0.104300000000     0          
C753     C      0.889500000000     0.794900000000     0.093500000000     0          
H754     H      0.875500000000     0.781000000000     0.073300000000     0          
C755     C      0.922200000000     0.776700000000     0.113000000000     0          
C756     C      0.943100000000     0.797500000000     0.143200000000     0          
C757     C      0.933100000000     0.732300000000     0.102700000000     0          
C758     C      0.765300000000     0.852200000000     0.917200000000     0          
H759     H      0.757700000000     0.869700000000     0.896400000000     0          
C760     C      0.775000000000     0.866900000000     0.954800000000     0          
H761     H      0.776900000000     0.894700000000     0.959200000000     0          
C762     C      0.773900000000     0.783500000000     0.942900000000     0          
H763     H      0.772600000000     0.755600000000     0.938700000000     0          
C764     C      0.900700000000     0.701300000000     0.102700000000     0          
H765     H      0.874800000000     0.708700000000     0.111400000000     0          
C766     C      0.123500000000     0.769900000000     0.313700000000     0          
C767     C      0.023100000000     0.736500000000     0.200600000000     0          
H768     H      0.024600000000     0.713500000000     0.216900000000     0          
C769     C      0.948800000000     0.649600000000     0.080700000000     0          
C770     C      0.017500000000     0.805900000000     0.152500000000     0          
H771     H      0.014900000000     0.829700000000     0.137400000000     0          
C772     C      0.795400000000     0.855400000000     0.027600000000     0          
O773     O      0.992000000000     0.523900000000     0.074700000000     0          
O774     O      0.222600000000     0.755000000000     0.202900000000     0          
C775     C      0.080400000000     0.775900000000     0.329000000000     0          
H776     H      0.067500000000     0.749900000000     0.332200000000     0          
H777     H      0.065400000000     0.791800000000     0.309700000000     0          
H778     H      0.081000000000     0.789700000000     0.354600000000     0          
C779     C      0.058700000000     0.794200000000     0.168700000000     0          
H780     H      0.082500000000     0.808300000000     0.162800000000     0          
Zr781    Zr     0.721100000000     0.277510000000     0.307040000000     0          
Zr782    Zr     0.568680000000     0.483140000000     0.540910000000     0          
O783     O      0.756300000000     0.311300000000     0.352200000000     0          
O784     O      0.819300000000     0.320700000000     0.331200000000     0          
O785     O      0.010700000000     0.093300000000     0.565600000000     0          
O786     O      0.975200000000     0.112200000000     0.510800000000     0          
C787     C      0.982800000000     0.160400000000     0.559100000000     0          
O788     O      0.685500000000     0.333900000000     0.320400000000     0          
H789     H      0.664800000000     0.338200000000     0.302500000000     0          
H790     H      0.701300000000     0.356300000000     0.319000000000     0          
O791     O      0.605100000000     0.582500000000     0.495600000000     0          
O792     O      0.651400000000     0.490300000000     0.467800000000     0          
C793     C      0.968200000000     0.236100000000     0.589700000000     0          
O794     O      0.624100000000     0.454200000000     0.520700000000     0          
C795     C      0.692800000000     0.444200000000     0.509200000000     0          
C796     C      0.903200000000     0.333800000000     0.606700000000     0          
O797     O      0.621500000000     0.531300000000     0.542700000000     0          
C798     C      0.921400000000     0.298100000000     0.587100000000     0          
H799     H      0.911100000000     0.288800000000     0.562400000000     0          
C800     C      0.967800000000     0.230100000000     0.546900000000     0          
H801     H      0.962000000000     0.251300000000     0.529200000000     0          
C802     C      0.766500000000     0.409200000000     0.532500000000     0          
C803     C      0.842500000000     0.339800000000     0.410200000000     0          
H804     H      0.863600000000     0.337400000000     0.391600000000     0          
C805     C      0.770700000000     0.329800000000     0.430200000000     0          
H806     H      0.744100000000     0.323000000000     0.423700000000     0          
C807     C      0.764400000000     0.432800000000     0.497700000000     0          
H808     H      0.787400000000     0.436800000000     0.481800000000     0          
C809     C      0.990200000000     0.119600000000     0.545400000000     0          
C810     C      0.781300000000     0.339300000000     0.470000000000     0          
H811     H      0.761400000000     0.335800000000     0.489700000000     0          
C812     C      0.794900000000     0.320800000000     0.359100000000     0          
C813     C      0.654500000000     0.461400000000     0.497400000000     0          
C814     C      0.818700000000     0.403900000000     0.586600000000     0          
H815     H      0.804700000000     0.424100000000     0.600500000000     0          
C816     C      0.851400000000     0.384500000000     0.604900000000     0          
C817     C      0.872300000000     0.354300000000     0.584000000000     0          
C818     C      0.860500000000     0.343500000000     0.544900000000     0          
H819     H      0.874500000000     0.323300000000     0.531000000000     0          
C820     C      0.827800000000     0.363000000000     0.526700000000     0          
C821     C      0.806900000000     0.393200000000     0.547500000000     0          
C822     C      0.816900000000     0.352700000000     0.482300000000     0          
C823     C      0.984700000000     0.167200000000     0.602200000000     0          
H824     H      0.992300000000     0.146400000000     0.619700000000     0          
C825     C      0.975000000000     0.204800000000     0.616900000000     0          
H826     H      0.973100000000     0.209200000000     0.644700000000     0          
C827     C      0.976100000000     0.192900000000     0.533500000000     0          
H828     H      0.977400000000     0.188700000000     0.505600000000     0          
C829     C      0.849300000000     0.352700000000     0.451300000000     0          
H830     H      0.875200000000     0.361400000000     0.458700000000     0          
C831     C      0.626500000000     0.563700000000     0.519900000000     0          
C832     C      0.726900000000     0.450600000000     0.486500000000     0          
H833     H      0.725400000000     0.466900000000     0.463500000000     0          
C834     C      0.801200000000     0.330700000000     0.399600000000     0          
C835     C      0.732500000000     0.402500000000     0.555900000000     0          
H836     H      0.735100000000     0.387400000000     0.579700000000     0          
C837     C      0.954600000000     0.277600000000     0.605400000000     0          
O838     O      0.758000000000     0.324700000000     0.273900000000     0          
O839     O      0.527400000000     0.452900000000     0.505000000000     0          
C840     C      0.669600000000     0.579000000000     0.525900000000     0          
H841     H      0.682500000000     0.582200000000     0.499900000000     0          
H842     H      0.684600000000     0.559700000000     0.541800000000     0          
H843     H      0.669000000000     0.604600000000     0.539700000000     0          
C844     C      0.691300000000     0.418700000000     0.544200000000     0          
H845     H      0.667500000000     0.412800000000     0.558300000000     0          
Zr846    Zr     0.778900000000     0.722490000000     0.807040000000     0          
Zr847    Zr     0.931320000000     0.516860000000     0.040910000000     0          
O848     O      0.743700000000     0.688700000000     0.852200000000     0          
O849     O      0.680700000000     0.679300000000     0.831200000000     0          
O850     O      0.489300000000     0.906700000000     0.065600000000     0          
O851     O      0.524800000000     0.887800000000     0.010800000000     0          
C852     C      0.517200000000     0.839600000000     0.059100000000     0          
O853     O      0.814500000000     0.666100000000     0.820400000000     0          
H854     H      0.835200000000     0.661800000000     0.802500000000     0          
H855     H      0.798700000000     0.643700000000     0.819000000000     0          
O856     O      0.894900000000     0.417500000000     0.995600000000     0          
O857     O      0.848600000000     0.509700000000     0.967800000000     0          
C858     C      0.531800000000     0.763900000000     0.089700000000     0          
O859     O      0.875900000000     0.545800000000     0.020700000000     0          
C860     C      0.807200000000     0.555800000000     0.009200000000     0          
C861     C      0.596800000000     0.666200000000     0.106700000000     0          
O862     O      0.878500000000     0.468700000000     0.042700000000     0          
C863     C      0.578600000000     0.701900000000     0.087100000000     0          
H864     H      0.588900000000     0.711200000000     0.062400000000     0          
C865     C      0.532200000000     0.769900000000     0.046900000000     0          
H866     H      0.538000000000     0.748700000000     0.029200000000     0          
C867     C      0.733500000000     0.590800000000     0.032500000000     0          
C868     C      0.657500000000     0.660200000000     0.910200000000     0          
H869     H      0.636400000000     0.662600000000     0.891600000000     0          
C870     C      0.729300000000     0.670200000000     0.930200000000     0          
H871     H      0.755900000000     0.677000000000     0.923700000000     0          
C872     C      0.735600000000     0.567200000000     0.997700000000     0          
H873     H      0.712600000000     0.563200000000     0.981800000000     0          
C874     C      0.509800000000     0.880400000000     0.045400000000     0          
C875     C      0.718700000000     0.660700000000     0.970000000000     0          
H876     H      0.738600000000     0.664200000000     0.989700000000     0          
C877     C      0.705100000000     0.679200000000     0.859100000000     0          
C878     C      0.845500000000     0.538600000000     0.997400000000     0          
C879     C      0.681300000000     0.596100000000     0.086600000000     0          
H880     H      0.695300000000     0.575900000000     0.100500000000     0          
C881     C      0.648600000000     0.615500000000     0.104900000000     0          
C882     C      0.627700000000     0.645700000000     0.084000000000     0          
C883     C      0.639500000000     0.656500000000     0.044900000000     0          
H884     H      0.625500000000     0.676700000000     0.031000000000     0          
C885     C      0.672200000000     0.637000000000     0.026700000000     0          
C886     C      0.693100000000     0.606800000000     0.047500000000     0          
C887     C      0.683100000000     0.647300000000     0.982300000000     0          
C888     C      0.515300000000     0.832800000000     0.102200000000     0          
H889     H      0.507700000000     0.853600000000     0.119700000000     0          
C890     C      0.525000000000     0.795200000000     0.116900000000     0          
H891     H      0.526900000000     0.790800000000     0.144700000000     0          
C892     C      0.523900000000     0.807100000000     0.033500000000     0          
H893     H      0.522600000000     0.811300000000     0.005600000000     0          
C894     C      0.650700000000     0.647300000000     0.951300000000     0          
H895     H      0.624800000000     0.638600000000     0.958700000000     0          
C896     C      0.873500000000     0.436300000000     0.019900000000     0          
C897     C      0.773100000000     0.549400000000     0.986500000000     0          
H898     H      0.774600000000     0.533100000000     0.963500000000     0          
C899     C      0.698800000000     0.669300000000     0.899600000000     0          
C900     C      0.767500000000     0.597500000000     0.055900000000     0          
H901     H      0.764900000000     0.612600000000     0.079700000000     0          
C902     C      0.545400000000     0.722400000000     0.105400000000     0          
O903     O      0.742000000000     0.675300000000     0.773900000000     0          
O904     O      0.972600000000     0.547100000000     0.005000000000     0          
C905     C      0.830400000000     0.421000000000     0.025900000000     0          
H906     H      0.817500000000     0.417800000000     0.999900000000     0          
H907     H      0.815400000000     0.440300000000     0.041800000000     0          
H908     H      0.831000000000     0.395400000000     0.039700000000     0          
C909     C      0.808700000000     0.581300000000     0.044200000000     0          
H910     H      0.832500000000     0.587200000000     0.058300000000     0          
Zr911    Zr     0.221100000000     0.222490000000     0.692960000000     0          
Zr912    Zr     0.068680000000     0.016860000000     0.459090000000     0          
O913     O      0.256300000000     0.188700000000     0.647800000000     0          
O914     O      0.319300000000     0.179300000000     0.668800000000     0          
O915     O      0.510700000000     0.406700000000     0.434400000000     0          
O916     O      0.475200000000     0.387800000000     0.489200000000     0          
C917     C      0.482800000000     0.339600000000     0.440900000000     0          
O918     O      0.185500000000     0.166100000000     0.679600000000     0          
H919     H      0.164800000000     0.161800000000     0.697500000000     0          
H920     H      0.201300000000     0.143700000000     0.681000000000     0          
O921     O      0.105100000000     0.917500000000     0.504400000000     0          
O922     O      0.151400000000     0.009700000000     0.532200000000     0          
C923     C      0.468200000000     0.263900000000     0.410300000000     0          
O924     O      0.124100000000     0.045800000000     0.479300000000     0          
C925     C      0.192800000000     0.055800000000     0.490800000000     0          
C926     C      0.403200000000     0.166200000000     0.393300000000     0          
O927     O      0.121500000000     0.968700000000     0.457300000000     0          
C928     C      0.421400000000     0.201900000000     0.412900000000     0          
H929     H      0.411100000000     0.211200000000     0.437600000000     0          
C930     C      0.467800000000     0.269900000000     0.453100000000     0          
H931     H      0.462000000000     0.248700000000     0.470800000000     0          
C932     C      0.266500000000     0.090800000000     0.467500000000     0          
C933     C      0.342500000000     0.160200000000     0.589800000000     0          
H934     H      0.363600000000     0.162600000000     0.608400000000     0          
C935     C      0.270700000000     0.170200000000     0.569800000000     0          
H936     H      0.244100000000     0.177000000000     0.576300000000     0          
C937     C      0.264400000000     0.067200000000     0.502300000000     0          
H938     H      0.287400000000     0.063200000000     0.518200000000     0          
C939     C      0.490200000000     0.380400000000     0.454600000000     0          
C940     C      0.281300000000     0.160700000000     0.530000000000     0          
H941     H      0.261400000000     0.164200000000     0.510300000000     0          
C942     C      0.294900000000     0.179200000000     0.640900000000     0          
C943     C      0.154500000000     0.038600000000     0.502600000000     0          
C944     C      0.318700000000     0.096100000000     0.413400000000     0          
H945     H      0.304700000000     0.075900000000     0.399500000000     0          
C946     C      0.351400000000     0.115500000000     0.395100000000     0          
C947     C      0.372300000000     0.145700000000     0.416000000000     0          
C948     C      0.360500000000     0.156500000000     0.455100000000     0          
H949     H      0.374500000000     0.176700000000     0.469000000000     0          
C950     C      0.327800000000     0.137000000000     0.473300000000     0          
C951     C      0.306900000000     0.106800000000     0.452500000000     0          
C952     C      0.316900000000     0.147300000000     0.517700000000     0          
C953     C      0.484700000000     0.332800000000     0.397800000000     0          
H954     H      0.492300000000     0.353600000000     0.380300000000     0          
C955     C      0.475000000000     0.295200000000     0.383100000000     0          
H956     H      0.473100000000     0.290800000000     0.355300000000     0          
C957     C      0.476100000000     0.307100000000     0.466500000000     0          
H958     H      0.477400000000     0.311300000000     0.494400000000     0          
C959     C      0.349300000000     0.147300000000     0.548700000000     0          
H960     H      0.375200000000     0.138600000000     0.541300000000     0          
C961     C      0.126500000000     0.936300000000     0.480100000000     0          
C962     C      0.226900000000     0.049400000000     0.513500000000     0          
H963     H      0.225400000000     0.033100000000     0.536500000000     0          
C964     C      0.301200000000     0.169300000000     0.600400000000     0          
C965     C      0.232500000000     0.097500000000     0.444100000000     0          
H966     H      0.235100000000     0.112600000000     0.420300000000     0          
C967     C      0.454600000000     0.222400000000     0.394600000000     0          
O968     O      0.258000000000     0.175300000000     0.726100000000     0          
O969     O      0.027400000000     0.047100000000     0.495000000000     0          
C970     C      0.169600000000     0.921000000000     0.474100000000     0          
H971     H      0.182500000000     0.917800000000     0.500100000000     0          
H972     H      0.184600000000     0.940300000000     0.458200000000     0          
H973     H      0.169000000000     0.895400000000     0.460300000000     0          
C974     C      0.191300000000     0.081300000000     0.455800000000     0          
H975     H      0.167500000000     0.087200000000     0.441700000000     0          
Zr976    Zr     0.278900000000     0.777510000000     0.192960000000     0          
Zr977    Zr     0.431320000000     0.983140000000     0.959090000000     0          
O978     O      0.243700000000     0.811300000000     0.147800000000     0          
O979     O      0.180700000000     0.820700000000     0.168800000000     0          
O980     O      0.989300000000     0.593300000000     0.934400000000     0          
O981     O      0.024800000000     0.612200000000     0.989200000000     0          
C982     C      0.017200000000     0.660400000000     0.940900000000     0          
O983     O      0.314500000000     0.833900000000     0.179600000000     0          
H984     H      0.335200000000     0.838200000000     0.197500000000     0          
H985     H      0.298700000000     0.856300000000     0.181000000000     0          
O986     O      0.394900000000     0.082500000000     0.004400000000     0          
O987     O      0.348600000000     0.990300000000     0.032200000000     0          
C988     C      0.031800000000     0.736100000000     0.910300000000     0          
O989     O      0.375900000000     0.954200000000     0.979300000000     0          
C990     C      0.307200000000     0.944200000000     0.990800000000     0          
C991     C      0.096800000000     0.833800000000     0.893300000000     0          
O992     O      0.378500000000     0.031300000000     0.957300000000     0          
C993     C      0.078600000000     0.798100000000     0.912900000000     0          
H994     H      0.088900000000     0.788800000000     0.937600000000     0          
C995     C      0.032200000000     0.730100000000     0.953100000000     0          
H996     H      0.038000000000     0.751300000000     0.970800000000     0          
C997     C      0.233500000000     0.909200000000     0.967500000000     0          
C998     C      0.157500000000     0.839800000000     0.089800000000     0          
H999     H      0.136400000000     0.837400000000     0.108400000000     0          
C1000    C      0.229300000000     0.829800000000     0.069800000000     0          
H1001    H      0.255900000000     0.823000000000     0.076300000000     0          
C1002    C      0.235600000000     0.932800000000     0.002300000000     0          
H1003    H      0.212600000000     0.936800000000     0.018200000000     0          
C1004    C      0.009800000000     0.619600000000     0.954600000000     0          
C1005    C      0.218700000000     0.839300000000     0.030000000000     0          
H1006    H      0.238600000000     0.835800000000     0.010300000000     0          
C1007    C      0.205100000000     0.820800000000     0.140900000000     0          
C1008    C      0.345500000000     0.961400000000     0.002600000000     0          
C1009    C      0.181300000000     0.903900000000     0.913400000000     0          
H1010    H      0.195300000000     0.924100000000     0.899500000000     0          
C1011    C      0.148600000000     0.884500000000     0.895100000000     0          
C1012    C      0.127700000000     0.854300000000     0.916000000000     0          
C1013    C      0.139500000000     0.843500000000     0.955100000000     0          
H1014    H      0.125500000000     0.823300000000     0.969000000000     0          
C1015    C      0.172200000000     0.863000000000     0.973300000000     0          
C1016    C      0.193100000000     0.893200000000     0.952500000000     0          
C1017    C      0.183100000000     0.852700000000     0.017700000000     0          
C1018    C      0.015300000000     0.667200000000     0.897800000000     0          
H1019    H      0.007700000000     0.646400000000     0.880300000000     0          
C1020    C      0.025000000000     0.704800000000     0.883100000000     0          
H1021    H      0.026900000000     0.709200000000     0.855300000000     0          
C1022    C      0.023900000000     0.692900000000     0.966500000000     0          
H1023    H      0.022600000000     0.688700000000     0.994400000000     0          
C1024    C      0.150700000000     0.852700000000     0.048700000000     0          
H1025    H      0.124800000000     0.861400000000     0.041300000000     0          
C1026    C      0.373500000000     0.063700000000     0.980100000000     0          
C1027    C      0.273100000000     0.950600000000     0.013500000000     0          
H1028    H      0.274600000000     0.966900000000     0.036500000000     0          
C1029    C      0.198800000000     0.830700000000     0.100400000000     0          
C1030    C      0.267500000000     0.902500000000     0.944100000000     0          
H1031    H      0.264900000000     0.887400000000     0.920300000000     0          
C1032    C      0.045400000000     0.777600000000     0.894600000000     0          
O1033    O      0.242000000000     0.824700000000     0.226100000000     0          
O1034    O      0.472600000000     0.952900000000     0.995000000000     0          
C1035    C      0.330400000000     0.079000000000     0.974100000000     0          
H1036    H      0.317500000000     0.082200000000     0.000100000000     0          
H1037    H      0.315400000000     0.059700000000     0.958200000000     0          
H1038    H      0.331000000000     0.104600000000     0.960300000000     0          
C1039    C      0.308700000000     0.918700000000     0.955800000000     0          
H1040    H      0.332500000000     0.912800000000     0.941700000000     0          
Zr1041   Zr     0.777510000000     0.192960000000     0.278900000000     0          
Zr1042   Zr     0.983140000000     0.959090000000     0.431320000000     0          
O1043    O      0.811300000000     0.147800000000     0.243700000000     0          
O1044    O      0.820700000000     0.168800000000     0.180700000000     0          
O1045    O      0.593300000000     0.934400000000     0.989300000000     0          
O1046    O      0.612200000000     0.989200000000     0.024800000000     0          
C1047    C      0.660400000000     0.940900000000     0.017200000000     0          
O1048    O      0.833900000000     0.179600000000     0.314500000000     0          
H1049    H      0.838200000000     0.197500000000     0.335200000000     0          
H1050    H      0.856300000000     0.181000000000     0.298700000000     0          
O1051    O      0.082500000000     0.004400000000     0.394900000000     0          
O1052    O      0.990300000000     0.032200000000     0.348600000000     0          
C1053    C      0.736100000000     0.910300000000     0.031800000000     0          
O1054    O      0.954200000000     0.979300000000     0.375900000000     0          
C1055    C      0.944200000000     0.990800000000     0.307200000000     0          
C1056    C      0.833800000000     0.893300000000     0.096800000000     0          
O1057    O      0.031300000000     0.957300000000     0.378500000000     0          
C1058    C      0.798100000000     0.912900000000     0.078600000000     0          
H1059    H      0.788800000000     0.937600000000     0.088900000000     0          
C1060    C      0.730100000000     0.953100000000     0.032200000000     0          
H1061    H      0.751300000000     0.970800000000     0.038000000000     0          
C1062    C      0.909200000000     0.967500000000     0.233500000000     0          
C1063    C      0.839800000000     0.089800000000     0.157500000000     0          
H1064    H      0.837400000000     0.108400000000     0.136400000000     0          
C1065    C      0.829800000000     0.069800000000     0.229300000000     0          
H1066    H      0.823000000000     0.076300000000     0.255900000000     0          
C1067    C      0.932800000000     0.002300000000     0.235600000000     0          
H1068    H      0.936800000000     0.018200000000     0.212600000000     0          
C1069    C      0.619600000000     0.954600000000     0.009800000000     0          
C1070    C      0.839300000000     0.030000000000     0.218700000000     0          
H1071    H      0.835800000000     0.010300000000     0.238600000000     0          
C1072    C      0.820800000000     0.140900000000     0.205100000000     0          
C1073    C      0.961400000000     0.002600000000     0.345500000000     0          
C1074    C      0.903900000000     0.913400000000     0.181300000000     0          
H1075    H      0.924100000000     0.899500000000     0.195300000000     0          
C1076    C      0.884500000000     0.895100000000     0.148600000000     0          
C1077    C      0.854300000000     0.916000000000     0.127700000000     0          
C1078    C      0.843500000000     0.955100000000     0.139500000000     0          
H1079    H      0.823300000000     0.969000000000     0.125500000000     0          
C1080    C      0.863000000000     0.973300000000     0.172200000000     0          
C1081    C      0.893200000000     0.952500000000     0.193100000000     0          
C1082    C      0.852700000000     0.017700000000     0.183100000000     0          
C1083    C      0.667200000000     0.897800000000     0.015300000000     0          
H1084    H      0.646400000000     0.880300000000     0.007700000000     0          
C1085    C      0.704800000000     0.883100000000     0.025000000000     0          
H1086    H      0.709200000000     0.855300000000     0.026900000000     0          
C1087    C      0.692900000000     0.966500000000     0.023900000000     0          
H1088    H      0.688700000000     0.994400000000     0.022600000000     0          
C1089    C      0.852700000000     0.048700000000     0.150700000000     0          
H1090    H      0.861400000000     0.041300000000     0.124800000000     0          
C1091    C      0.063700000000     0.980100000000     0.373500000000     0          
C1092    C      0.950600000000     0.013500000000     0.273100000000     0          
H1093    H      0.966900000000     0.036500000000     0.274600000000     0          
C1094    C      0.830700000000     0.100400000000     0.198800000000     0          
C1095    C      0.902500000000     0.944100000000     0.267500000000     0          
H1096    H      0.887400000000     0.920300000000     0.264900000000     0          
C1097    C      0.777600000000     0.894600000000     0.045400000000     0          
O1098    O      0.824700000000     0.226100000000     0.242000000000     0          
O1099    O      0.952900000000     0.995000000000     0.472600000000     0          
C1100    C      0.079000000000     0.974100000000     0.330400000000     0          
H1101    H      0.082200000000     0.000100000000     0.317500000000     0          
H1102    H      0.059700000000     0.958200000000     0.315400000000     0          
H1103    H      0.104600000000     0.960300000000     0.331000000000     0          
C1104    C      0.918700000000     0.955800000000     0.308700000000     0          
H1105    H      0.912800000000     0.941700000000     0.332500000000     0          
Zr1106   Zr     0.222490000000     0.692960000000     0.221100000000     0          
Zr1107   Zr     0.016860000000     0.459090000000     0.068680000000     0          
O1108    O      0.188700000000     0.647800000000     0.256300000000     0          
O1109    O      0.179300000000     0.668800000000     0.319300000000     0          
O1110    O      0.406700000000     0.434400000000     0.510700000000     0          
O1111    O      0.387800000000     0.489200000000     0.475200000000     0          
C1112    C      0.339600000000     0.440900000000     0.482800000000     0          
O1113    O      0.166100000000     0.679600000000     0.185500000000     0          
H1114    H      0.161800000000     0.697500000000     0.164800000000     0          
H1115    H      0.143700000000     0.681000000000     0.201300000000     0          
O1116    O      0.917500000000     0.504400000000     0.105100000000     0          
O1117    O      0.009700000000     0.532200000000     0.151400000000     0          
C1118    C      0.263900000000     0.410300000000     0.468200000000     0          
O1119    O      0.045800000000     0.479300000000     0.124100000000     0          
C1120    C      0.055800000000     0.490800000000     0.192800000000     0          
C1121    C      0.166200000000     0.393300000000     0.403200000000     0          
O1122    O      0.968700000000     0.457300000000     0.121500000000     0          
C1123    C      0.201900000000     0.412900000000     0.421400000000     0          
H1124    H      0.211200000000     0.437600000000     0.411100000000     0          
C1125    C      0.269900000000     0.453100000000     0.467800000000     0          
H1126    H      0.248700000000     0.470800000000     0.462000000000     0          
C1127    C      0.090800000000     0.467500000000     0.266500000000     0          
C1128    C      0.160200000000     0.589800000000     0.342500000000     0          
H1129    H      0.162600000000     0.608400000000     0.363600000000     0          
C1130    C      0.170200000000     0.569800000000     0.270700000000     0          
H1131    H      0.177000000000     0.576300000000     0.244100000000     0          
C1132    C      0.067200000000     0.502300000000     0.264400000000     0          
H1133    H      0.063200000000     0.518200000000     0.287400000000     0          
C1134    C      0.380400000000     0.454600000000     0.490200000000     0          
C1135    C      0.160700000000     0.530000000000     0.281300000000     0          
H1136    H      0.164200000000     0.510300000000     0.261400000000     0          
C1137    C      0.179200000000     0.640900000000     0.294900000000     0          
C1138    C      0.038600000000     0.502600000000     0.154500000000     0          
C1139    C      0.096100000000     0.413400000000     0.318700000000     0          
H1140    H      0.075900000000     0.399500000000     0.304700000000     0          
C1141    C      0.115500000000     0.395100000000     0.351400000000     0          
C1142    C      0.145700000000     0.416000000000     0.372300000000     0          
C1143    C      0.156500000000     0.455100000000     0.360500000000     0          
H1144    H      0.176700000000     0.469000000000     0.374500000000     0          
C1145    C      0.137000000000     0.473300000000     0.327800000000     0          
C1146    C      0.106800000000     0.452500000000     0.306900000000     0          
C1147    C      0.147300000000     0.517700000000     0.316900000000     0          
C1148    C      0.332800000000     0.397800000000     0.484700000000     0          
H1149    H      0.353600000000     0.380300000000     0.492300000000     0          
C1150    C      0.295200000000     0.383100000000     0.475000000000     0          
H1151    H      0.290800000000     0.355300000000     0.473100000000     0          
C1152    C      0.307100000000     0.466500000000     0.476100000000     0          
H1153    H      0.311300000000     0.494400000000     0.477400000000     0          
C1154    C      0.147300000000     0.548700000000     0.349300000000     0          
H1155    H      0.138600000000     0.541300000000     0.375200000000     0          
C1156    C      0.936300000000     0.480100000000     0.126500000000     0          
C1157    C      0.049400000000     0.513500000000     0.226900000000     0          
H1158    H      0.033100000000     0.536500000000     0.225400000000     0          
C1159    C      0.169300000000     0.600400000000     0.301200000000     0          
C1160    C      0.097500000000     0.444100000000     0.232500000000     0          
H1161    H      0.112600000000     0.420300000000     0.235100000000     0          
C1162    C      0.222400000000     0.394600000000     0.454600000000     0          
O1163    O      0.175300000000     0.726100000000     0.258000000000     0          
O1164    O      0.047100000000     0.495000000000     0.027400000000     0          
C1165    C      0.921000000000     0.474100000000     0.169600000000     0          
H1166    H      0.917800000000     0.500100000000     0.182500000000     0          
H1167    H      0.940300000000     0.458200000000     0.184600000000     0          
H1168    H      0.895400000000     0.460300000000     0.169000000000     0          
C1169    C      0.081300000000     0.455800000000     0.191300000000     0          
H1170    H      0.087200000000     0.441700000000     0.167500000000     0          
Zr1171   Zr     0.722490000000     0.807040000000     0.778900000000     0          
Zr1172   Zr     0.516860000000     0.040910000000     0.931320000000     0          
O1173    O      0.688700000000     0.852200000000     0.743700000000     0          
O1174    O      0.679300000000     0.831200000000     0.680700000000     0          
O1175    O      0.906700000000     0.065600000000     0.489300000000     0          
O1176    O      0.887800000000     0.010800000000     0.524800000000     0          
C1177    C      0.839600000000     0.059100000000     0.517200000000     0          
O1178    O      0.666100000000     0.820400000000     0.814500000000     0          
H1179    H      0.661800000000     0.802500000000     0.835200000000     0          
H1180    H      0.643700000000     0.819000000000     0.798700000000     0          
O1181    O      0.417500000000     0.995600000000     0.894900000000     0          
O1182    O      0.509700000000     0.967800000000     0.848600000000     0          
C1183    C      0.763900000000     0.089700000000     0.531800000000     0          
O1184    O      0.545800000000     0.020700000000     0.875900000000     0          
C1185    C      0.555800000000     0.009200000000     0.807200000000     0          
C1186    C      0.666200000000     0.106700000000     0.596800000000     0          
O1187    O      0.468700000000     0.042700000000     0.878500000000     0          
C1188    C      0.701900000000     0.087100000000     0.578600000000     0          
H1189    H      0.711200000000     0.062400000000     0.588900000000     0          
C1190    C      0.769900000000     0.046900000000     0.532200000000     0          
H1191    H      0.748700000000     0.029200000000     0.538000000000     0          
C1192    C      0.590800000000     0.032500000000     0.733500000000     0          
C1193    C      0.660200000000     0.910200000000     0.657500000000     0          
H1194    H      0.662600000000     0.891600000000     0.636400000000     0          
C1195    C      0.670200000000     0.930200000000     0.729300000000     0          
H1196    H      0.677000000000     0.923700000000     0.755900000000     0          
C1197    C      0.567200000000     0.997700000000     0.735600000000     0          
H1198    H      0.563200000000     0.981800000000     0.712600000000     0          
C1199    C      0.880400000000     0.045400000000     0.509800000000     0          
C1200    C      0.660700000000     0.970000000000     0.718700000000     0          
H1201    H      0.664200000000     0.989700000000     0.738600000000     0          
C1202    C      0.679200000000     0.859100000000     0.705100000000     0          
C1203    C      0.538600000000     0.997400000000     0.845500000000     0          
C1204    C      0.596100000000     0.086600000000     0.681300000000     0          
H1205    H      0.575900000000     0.100500000000     0.695300000000     0          
C1206    C      0.615500000000     0.104900000000     0.648600000000     0          
C1207    C      0.645700000000     0.084000000000     0.627700000000     0          
C1208    C      0.656500000000     0.044900000000     0.639500000000     0          
H1209    H      0.676700000000     0.031000000000     0.625500000000     0          
C1210    C      0.637000000000     0.026700000000     0.672200000000     0          
C1211    C      0.606800000000     0.047500000000     0.693100000000     0          
C1212    C      0.647300000000     0.982300000000     0.683100000000     0          
C1213    C      0.832800000000     0.102200000000     0.515300000000     0          
H1214    H      0.853600000000     0.119700000000     0.507700000000     0          
C1215    C      0.795200000000     0.116900000000     0.525000000000     0          
H1216    H      0.790800000000     0.144700000000     0.526900000000     0          
C1217    C      0.807100000000     0.033500000000     0.523900000000     0          
H1218    H      0.811300000000     0.005600000000     0.522600000000     0          
C1219    C      0.647300000000     0.951300000000     0.650700000000     0          
H1220    H      0.638600000000     0.958700000000     0.624800000000     0          
C1221    C      0.436300000000     0.019900000000     0.873500000000     0          
C1222    C      0.549400000000     0.986500000000     0.773100000000     0          
H1223    H      0.533100000000     0.963500000000     0.774600000000     0          
C1224    C      0.669300000000     0.899600000000     0.698800000000     0          
C1225    C      0.597500000000     0.055900000000     0.767500000000     0          
H1226    H      0.612600000000     0.079700000000     0.764900000000     0          
C1227    C      0.722400000000     0.105400000000     0.545400000000     0          
O1228    O      0.675300000000     0.773900000000     0.742000000000     0          
O1229    O      0.547100000000     0.005000000000     0.972600000000     0          
C1230    C      0.421000000000     0.025900000000     0.830400000000     0          
H1231    H      0.417800000000     0.999900000000     0.817500000000     0          
H1232    H      0.440300000000     0.041800000000     0.815400000000     0          
H1233    H      0.395400000000     0.039700000000     0.831000000000     0          
C1234    C      0.581300000000     0.044200000000     0.808700000000     0          
H1235    H      0.587200000000     0.058300000000     0.832500000000     0          
Zr1236   Zr     0.277510000000     0.307040000000     0.721100000000     0          
Zr1237   Zr     0.483140000000     0.540910000000     0.568680000000     0          
O1238    O      0.311300000000     0.352200000000     0.756300000000     0          
O1239    O      0.320700000000     0.331200000000     0.819300000000     0          
O1240    O      0.093300000000     0.565600000000     0.010700000000     0          
O1241    O      0.112200000000     0.510800000000     0.975200000000     0          
C1242    C      0.160400000000     0.559100000000     0.982800000000     0          
O1243    O      0.333900000000     0.320400000000     0.685500000000     0          
H1244    H      0.338200000000     0.302500000000     0.664800000000     0          
H1245    H      0.356300000000     0.319000000000     0.701300000000     0          
O1246    O      0.582500000000     0.495600000000     0.605100000000     0          
O1247    O      0.490300000000     0.467800000000     0.651400000000     0          
C1248    C      0.236100000000     0.589700000000     0.968200000000     0          
O1249    O      0.454200000000     0.520700000000     0.624100000000     0          
C1250    C      0.444200000000     0.509200000000     0.692800000000     0          
C1251    C      0.333800000000     0.606700000000     0.903200000000     0          
O1252    O      0.531300000000     0.542700000000     0.621500000000     0          
C1253    C      0.298100000000     0.587100000000     0.921400000000     0          
H1254    H      0.288800000000     0.562400000000     0.911100000000     0          
C1255    C      0.230100000000     0.546900000000     0.967800000000     0          
H1256    H      0.251300000000     0.529200000000     0.962000000000     0          
C1257    C      0.409200000000     0.532500000000     0.766500000000     0          
C1258    C      0.339800000000     0.410200000000     0.842500000000     0          
H1259    H      0.337400000000     0.391600000000     0.863600000000     0          
C1260    C      0.329800000000     0.430200000000     0.770700000000     0          
H1261    H      0.323000000000     0.423700000000     0.744100000000     0          
C1262    C      0.432800000000     0.497700000000     0.764400000000     0          
H1263    H      0.436800000000     0.481800000000     0.787400000000     0          
C1264    C      0.119600000000     0.545400000000     0.990200000000     0          
C1265    C      0.339300000000     0.470000000000     0.781300000000     0          
H1266    H      0.335800000000     0.489700000000     0.761400000000     0          
C1267    C      0.320800000000     0.359100000000     0.794900000000     0          
C1268    C      0.461400000000     0.497400000000     0.654500000000     0          
C1269    C      0.403900000000     0.586600000000     0.818700000000     0          
H1270    H      0.424100000000     0.600500000000     0.804700000000     0          
C1271    C      0.384500000000     0.604900000000     0.851400000000     0          
C1272    C      0.354300000000     0.584000000000     0.872300000000     0          
C1273    C      0.343500000000     0.544900000000     0.860500000000     0          
H1274    H      0.323300000000     0.531000000000     0.874500000000     0          
C1275    C      0.363000000000     0.526700000000     0.827800000000     0          
C1276    C      0.393200000000     0.547500000000     0.806900000000     0          
C1277    C      0.352700000000     0.482300000000     0.816900000000     0          
C1278    C      0.167200000000     0.602200000000     0.984700000000     0          
H1279    H      0.146400000000     0.619700000000     0.992300000000     0          
C1280    C      0.204800000000     0.616900000000     0.975000000000     0          
H1281    H      0.209200000000     0.644700000000     0.973100000000     0          
C1282    C      0.192900000000     0.533500000000     0.976100000000     0          
H1283    H      0.188700000000     0.505600000000     0.977400000000     0          
C1284    C      0.352700000000     0.451300000000     0.849300000000     0          
H1285    H      0.361400000000     0.458700000000     0.875200000000     0          
C1286    C      0.563700000000     0.519900000000     0.626500000000     0          
C1287    C      0.450600000000     0.486500000000     0.726900000000     0          
H1288    H      0.466900000000     0.463500000000     0.725400000000     0          
C1289    C      0.330700000000     0.399600000000     0.801200000000     0          
C1290    C      0.402500000000     0.555900000000     0.732500000000     0          
H1291    H      0.387400000000     0.579700000000     0.735100000000     0          
C1292    C      0.277600000000     0.605400000000     0.954600000000     0          
O1293    O      0.324700000000     0.273900000000     0.758000000000     0          
O1294    O      0.452900000000     0.505000000000     0.527400000000     0          
C1295    C      0.579000000000     0.525900000000     0.669600000000     0          
H1296    H      0.582200000000     0.499900000000     0.682500000000     0          
H1297    H      0.559700000000     0.541800000000     0.684600000000     0          
H1298    H      0.604600000000     0.539700000000     0.669000000000     0          
C1299    C      0.418700000000     0.544200000000     0.691300000000     0          
H1300    H      0.412800000000     0.558300000000     0.667500000000     0          
Zr1301   Zr     0.692960000000     0.221100000000     0.222490000000     0          
Zr1302   Zr     0.459090000000     0.068680000000     0.016860000000     0          
O1303    O      0.647800000000     0.256300000000     0.188700000000     0          
O1304    O      0.668800000000     0.319300000000     0.179300000000     0          
O1305    O      0.434400000000     0.510700000000     0.406700000000     0          
O1306    O      0.489200000000     0.475200000000     0.387800000000     0          
C1307    C      0.440900000000     0.482800000000     0.339600000000     0          
O1308    O      0.679600000000     0.185500000000     0.166100000000     0          
H1309    H      0.697500000000     0.164800000000     0.161800000000     0          
H1310    H      0.681000000000     0.201300000000     0.143700000000     0          
O1311    O      0.504400000000     0.105100000000     0.917500000000     0          
O1312    O      0.532200000000     0.151400000000     0.009700000000     0          
C1313    C      0.410300000000     0.468200000000     0.263900000000     0          
O1314    O      0.479300000000     0.124100000000     0.045800000000     0          
C1315    C      0.490800000000     0.192800000000     0.055800000000     0          
C1316    C      0.393300000000     0.403200000000     0.166200000000     0          
O1317    O      0.457300000000     0.121500000000     0.968700000000     0          
C1318    C      0.412900000000     0.421400000000     0.201900000000     0          
H1319    H      0.437600000000     0.411100000000     0.211200000000     0          
C1320    C      0.453100000000     0.467800000000     0.269900000000     0          
H1321    H      0.470800000000     0.462000000000     0.248700000000     0          
C1322    C      0.467500000000     0.266500000000     0.090800000000     0          
C1323    C      0.589800000000     0.342500000000     0.160200000000     0          
H1324    H      0.608400000000     0.363600000000     0.162600000000     0          
C1325    C      0.569800000000     0.270700000000     0.170200000000     0          
H1326    H      0.576300000000     0.244100000000     0.177000000000     0          
C1327    C      0.502300000000     0.264400000000     0.067200000000     0          
H1328    H      0.518200000000     0.287400000000     0.063200000000     0          
C1329    C      0.454600000000     0.490200000000     0.380400000000     0          
C1330    C      0.530000000000     0.281300000000     0.160700000000     0          
H1331    H      0.510300000000     0.261400000000     0.164200000000     0          
C1332    C      0.640900000000     0.294900000000     0.179200000000     0          
C1333    C      0.502600000000     0.154500000000     0.038600000000     0          
C1334    C      0.413400000000     0.318700000000     0.096100000000     0          
H1335    H      0.399500000000     0.304700000000     0.075900000000     0          
C1336    C      0.395100000000     0.351400000000     0.115500000000     0          
C1337    C      0.416000000000     0.372300000000     0.145700000000     0          
C1338    C      0.455100000000     0.360500000000     0.156500000000     0          
H1339    H      0.469000000000     0.374500000000     0.176700000000     0          
C1340    C      0.473300000000     0.327800000000     0.137000000000     0          
C1341    C      0.452500000000     0.306900000000     0.106800000000     0          
C1342    C      0.517700000000     0.316900000000     0.147300000000     0          
C1343    C      0.397800000000     0.484700000000     0.332800000000     0          
H1344    H      0.380300000000     0.492300000000     0.353600000000     0          
C1345    C      0.383100000000     0.475000000000     0.295200000000     0          
H1346    H      0.355300000000     0.473100000000     0.290800000000     0          
C1347    C      0.466500000000     0.476100000000     0.307100000000     0          
H1348    H      0.494400000000     0.477400000000     0.311300000000     0          
C1349    C      0.548700000000     0.349300000000     0.147300000000     0          
H1350    H      0.541300000000     0.375200000000     0.138600000000     0          
C1351    C      0.480100000000     0.126500000000     0.936300000000     0          
C1352    C      0.513500000000     0.226900000000     0.049400000000     0          
H1353    H      0.536500000000     0.225400000000     0.033100000000     0          
C1354    C      0.600400000000     0.301200000000     0.169300000000     0          
C1355    C      0.444100000000     0.232500000000     0.097500000000     0          
H1356    H      0.420300000000     0.235100000000     0.112600000000     0          
C1357    C      0.394600000000     0.454600000000     0.222400000000     0          
O1358    O      0.726100000000     0.258000000000     0.175300000000     0          
O1359    O      0.495000000000     0.027400000000     0.047100000000     0          
C1360    C      0.474100000000     0.169600000000     0.921000000000     0          
H1361    H      0.500100000000     0.182500000000     0.917800000000     0          
H1362    H      0.458200000000     0.184600000000     0.940300000000     0          
H1363    H      0.460300000000     0.169000000000     0.895400000000     0          
C1364    C      0.455800000000     0.191300000000     0.081300000000     0          
H1365    H      0.441700000000     0.167500000000     0.087200000000     0          
Zr1366   Zr     0.192960000000     0.278900000000     0.777510000000     0          
Zr1367   Zr     0.959090000000     0.431320000000     0.983140000000     0          
O1368    O      0.147800000000     0.243700000000     0.811300000000     0          
O1369    O      0.168800000000     0.180700000000     0.820700000000     0          
O1370    O      0.934400000000     0.989300000000     0.593300000000     0          
O1371    O      0.989200000000     0.024800000000     0.612200000000     0          
C1372    C      0.940900000000     0.017200000000     0.660400000000     0          
O1373    O      0.179600000000     0.314500000000     0.833900000000     0          
H1374    H      0.197500000000     0.335200000000     0.838200000000     0          
H1375    H      0.181000000000     0.298700000000     0.856300000000     0          
O1376    O      0.004400000000     0.394900000000     0.082500000000     0          
O1377    O      0.032200000000     0.348600000000     0.990300000000     0          
C1378    C      0.910300000000     0.031800000000     0.736100000000     0          
O1379    O      0.979300000000     0.375900000000     0.954200000000     0          
C1380    C      0.990800000000     0.307200000000     0.944200000000     0          
C1381    C      0.893300000000     0.096800000000     0.833800000000     0          
O1382    O      0.957300000000     0.378500000000     0.031300000000     0          
C1383    C      0.912900000000     0.078600000000     0.798100000000     0          
H1384    H      0.937600000000     0.088900000000     0.788800000000     0          
C1385    C      0.953100000000     0.032200000000     0.730100000000     0          
H1386    H      0.970800000000     0.038000000000     0.751300000000     0          
C1387    C      0.967500000000     0.233500000000     0.909200000000     0          
C1388    C      0.089800000000     0.157500000000     0.839800000000     0          
H1389    H      0.108400000000     0.136400000000     0.837400000000     0          
C1390    C      0.069800000000     0.229300000000     0.829800000000     0          
H1391    H      0.076300000000     0.255900000000     0.823000000000     0          
C1392    C      0.002300000000     0.235600000000     0.932800000000     0          
H1393    H      0.018200000000     0.212600000000     0.936800000000     0          
C1394    C      0.954600000000     0.009800000000     0.619600000000     0          
C1395    C      0.030000000000     0.218700000000     0.839300000000     0          
H1396    H      0.010300000000     0.238600000000     0.835800000000     0          
C1397    C      0.140900000000     0.205100000000     0.820800000000     0          
C1398    C      0.002600000000     0.345500000000     0.961400000000     0          
C1399    C      0.913400000000     0.181300000000     0.903900000000     0          
H1400    H      0.899500000000     0.195300000000     0.924100000000     0          
C1401    C      0.895100000000     0.148600000000     0.884500000000     0          
C1402    C      0.916000000000     0.127700000000     0.854300000000     0          
C1403    C      0.955100000000     0.139500000000     0.843500000000     0          
H1404    H      0.969000000000     0.125500000000     0.823300000000     0          
C1405    C      0.973300000000     0.172200000000     0.863000000000     0          
C1406    C      0.952500000000     0.193100000000     0.893200000000     0          
C1407    C      0.017700000000     0.183100000000     0.852700000000     0          
C1408    C      0.897800000000     0.015300000000     0.667200000000     0          
H1409    H      0.880300000000     0.007700000000     0.646400000000     0          
C1410    C      0.883100000000     0.025000000000     0.704800000000     0          
H1411    H      0.855300000000     0.026900000000     0.709200000000     0          
C1412    C      0.966500000000     0.023900000000     0.692900000000     0          
H1413    H      0.994400000000     0.022600000000     0.688700000000     0          
C1414    C      0.048700000000     0.150700000000     0.852700000000     0          
H1415    H      0.041300000000     0.124800000000     0.861400000000     0          
C1416    C      0.980100000000     0.373500000000     0.063700000000     0          
C1417    C      0.013500000000     0.273100000000     0.950600000000     0          
H1418    H      0.036500000000     0.274600000000     0.966900000000     0          
C1419    C      0.100400000000     0.198800000000     0.830700000000     0          
C1420    C      0.944100000000     0.267500000000     0.902500000000     0          
H1421    H      0.920300000000     0.264900000000     0.887400000000     0          
C1422    C      0.894600000000     0.045400000000     0.777600000000     0          
O1423    O      0.226100000000     0.242000000000     0.824700000000     0          
O1424    O      0.995000000000     0.472600000000     0.952900000000     0          
C1425    C      0.974100000000     0.330400000000     0.079000000000     0          
H1426    H      0.000100000000     0.317500000000     0.082200000000     0          
H1427    H      0.958200000000     0.315400000000     0.059700000000     0          
H1428    H      0.960300000000     0.331000000000     0.104600000000     0          
C1429    C      0.955800000000     0.308700000000     0.918700000000     0          
H1430    H      0.941700000000     0.332500000000     0.912800000000     0          
Zr1431   Zr     0.307040000000     0.721100000000     0.277510000000     0          
Zr1432   Zr     0.540910000000     0.568680000000     0.483140000000     0          
O1433    O      0.352200000000     0.756300000000     0.311300000000     0          
O1434    O      0.331200000000     0.819300000000     0.320700000000     0          
O1435    O      0.565600000000     0.010700000000     0.093300000000     0          
O1436    O      0.510800000000     0.975200000000     0.112200000000     0          
C1437    C      0.559100000000     0.982800000000     0.160400000000     0          
O1438    O      0.320400000000     0.685500000000     0.333900000000     0          
H1439    H      0.302500000000     0.664800000000     0.338200000000     0          
H1440    H      0.319000000000     0.701300000000     0.356300000000     0          
O1441    O      0.495600000000     0.605100000000     0.582500000000     0          
O1442    O      0.467800000000     0.651400000000     0.490300000000     0          
C1443    C      0.589700000000     0.968200000000     0.236100000000     0          
O1444    O      0.520700000000     0.624100000000     0.454200000000     0          
C1445    C      0.509200000000     0.692800000000     0.444200000000     0          
C1446    C      0.606700000000     0.903200000000     0.333800000000     0          
O1447    O      0.542700000000     0.621500000000     0.531300000000     0          
C1448    C      0.587100000000     0.921400000000     0.298100000000     0          
H1449    H      0.562400000000     0.911100000000     0.288800000000     0          
C1450    C      0.546900000000     0.967800000000     0.230100000000     0          
H1451    H      0.529200000000     0.962000000000     0.251300000000     0          
C1452    C      0.532500000000     0.766500000000     0.409200000000     0          
C1453    C      0.410200000000     0.842500000000     0.339800000000     0          
H1454    H      0.391600000000     0.863600000000     0.337400000000     0          
C1455    C      0.430200000000     0.770700000000     0.329800000000     0          
H1456    H      0.423700000000     0.744100000000     0.323000000000     0          
C1457    C      0.497700000000     0.764400000000     0.432800000000     0          
H1458    H      0.481800000000     0.787400000000     0.436800000000     0          
C1459    C      0.545400000000     0.990200000000     0.119600000000     0          
C1460    C      0.470000000000     0.781300000000     0.339300000000     0          
H1461    H      0.489700000000     0.761400000000     0.335800000000     0          
C1462    C      0.359100000000     0.794900000000     0.320800000000     0          
C1463    C      0.497400000000     0.654500000000     0.461400000000     0          
C1464    C      0.586600000000     0.818700000000     0.403900000000     0          
H1465    H      0.600500000000     0.804700000000     0.424100000000     0          
C1466    C      0.604900000000     0.851400000000     0.384500000000     0          
C1467    C      0.584000000000     0.872300000000     0.354300000000     0          
C1468    C      0.544900000000     0.860500000000     0.343500000000     0          
H1469    H      0.531000000000     0.874500000000     0.323300000000     0          
C1470    C      0.526700000000     0.827800000000     0.363000000000     0          
C1471    C      0.547500000000     0.806900000000     0.393200000000     0          
C1472    C      0.482300000000     0.816900000000     0.352700000000     0          
C1473    C      0.602200000000     0.984700000000     0.167200000000     0          
H1474    H      0.619700000000     0.992300000000     0.146400000000     0          
C1475    C      0.616900000000     0.975000000000     0.204800000000     0          
H1476    H      0.644700000000     0.973100000000     0.209200000000     0          
C1477    C      0.533500000000     0.976100000000     0.192900000000     0          
H1478    H      0.505600000000     0.977400000000     0.188700000000     0          
C1479    C      0.451300000000     0.849300000000     0.352700000000     0          
H1480    H      0.458700000000     0.875200000000     0.361400000000     0          
C1481    C      0.519900000000     0.626500000000     0.563700000000     0          
C1482    C      0.486500000000     0.726900000000     0.450600000000     0          
H1483    H      0.463500000000     0.725400000000     0.466900000000     0          
C1484    C      0.399600000000     0.801200000000     0.330700000000     0          
C1485    C      0.555900000000     0.732500000000     0.402500000000     0          
H1486    H      0.579700000000     0.735100000000     0.387400000000     0          
C1487    C      0.605400000000     0.954600000000     0.277600000000     0          
O1488    O      0.273900000000     0.758000000000     0.324700000000     0          
O1489    O      0.505000000000     0.527400000000     0.452900000000     0          
C1490    C      0.525900000000     0.669600000000     0.579000000000     0          
H1491    H      0.499900000000     0.682500000000     0.582200000000     0          
H1492    H      0.541800000000     0.684600000000     0.559700000000     0          
H1493    H      0.539700000000     0.669000000000     0.604600000000     0          
C1494    C      0.544200000000     0.691300000000     0.418700000000     0          
H1495    H      0.558300000000     0.667500000000     0.412800000000     0          
Zr1496   Zr     0.807040000000     0.778900000000     0.722490000000     0          
Zr1497   Zr     0.040910000000     0.931320000000     0.516860000000     0          
O1498    O      0.852200000000     0.743700000000     0.688700000000     0          
O1499    O      0.831200000000     0.680700000000     0.679300000000     0          
O1500    O      0.065600000000     0.489300000000     0.906700000000     0          
O1501    O      0.010800000000     0.524800000000     0.887800000000     0          
C1502    C      0.059100000000     0.517200000000     0.839600000000     0          
O1503    O      0.820400000000     0.814500000000     0.666100000000     0          
H1504    H      0.802500000000     0.835200000000     0.661800000000     0          
H1505    H      0.819000000000     0.798700000000     0.643700000000     0          
O1506    O      0.995600000000     0.894900000000     0.417500000000     0          
O1507    O      0.967800000000     0.848600000000     0.509700000000     0          
C1508    C      0.089700000000     0.531800000000     0.763900000000     0          
O1509    O      0.020700000000     0.875900000000     0.545800000000     0          
C1510    C      0.009200000000     0.807200000000     0.555800000000     0          
C1511    C      0.106700000000     0.596800000000     0.666200000000     0          
O1512    O      0.042700000000     0.878500000000     0.468700000000     0          
C1513    C      0.087100000000     0.578600000000     0.701900000000     0          
H1514    H      0.062400000000     0.588900000000     0.711200000000     0          
C1515    C      0.046900000000     0.532200000000     0.769900000000     0          
H1516    H      0.029200000000     0.538000000000     0.748700000000     0          
C1517    C      0.032500000000     0.733500000000     0.590800000000     0          
C1518    C      0.910200000000     0.657500000000     0.660200000000     0          
H1519    H      0.891600000000     0.636400000000     0.662600000000     0          
C1520    C      0.930200000000     0.729300000000     0.670200000000     0          
H1521    H      0.923700000000     0.755900000000     0.677000000000     0          
C1522    C      0.997700000000     0.735600000000     0.567200000000     0          
H1523    H      0.981800000000     0.712600000000     0.563200000000     0          
C1524    C      0.045400000000     0.509800000000     0.880400000000     0          
C1525    C      0.970000000000     0.718700000000     0.660700000000     0          
H1526    H      0.989700000000     0.738600000000     0.664200000000     0          
C1527    C      0.859100000000     0.705100000000     0.679200000000     0          
C1528    C      0.997400000000     0.845500000000     0.538600000000     0          
C1529    C      0.086600000000     0.681300000000     0.596100000000     0          
H1530    H      0.100500000000     0.695300000000     0.575900000000     0          
C1531    C      0.104900000000     0.648600000000     0.615500000000     0          
C1532    C      0.084000000000     0.627700000000     0.645700000000     0          
C1533    C      0.044900000000     0.639500000000     0.656500000000     0          
H1534    H      0.031000000000     0.625500000000     0.676700000000     0          
C1535    C      0.026700000000     0.672200000000     0.637000000000     0          
C1536    C      0.047500000000     0.693100000000     0.606800000000     0          
C1537    C      0.982300000000     0.683100000000     0.647300000000     0          
C1538    C      0.102200000000     0.515300000000     0.832800000000     0          
H1539    H      0.119700000000     0.507700000000     0.853600000000     0          
C1540    C      0.116900000000     0.525000000000     0.795200000000     0          
H1541    H      0.144700000000     0.526900000000     0.790800000000     0          
C1542    C      0.033500000000     0.523900000000     0.807100000000     0          
H1543    H      0.005600000000     0.522600000000     0.811300000000     0          
C1544    C      0.951300000000     0.650700000000     0.647300000000     0          
H1545    H      0.958700000000     0.624800000000     0.638600000000     0          
C1546    C      0.019900000000     0.873500000000     0.436300000000     0          
C1547    C      0.986500000000     0.773100000000     0.549400000000     0          
H1548    H      0.963500000000     0.774600000000     0.533100000000     0          
C1549    C      0.899600000000     0.698800000000     0.669300000000     0          
C1550    C      0.055900000000     0.767500000000     0.597500000000     0          
H1551    H      0.079700000000     0.764900000000     0.612600000000     0          
C1552    C      0.105400000000     0.545400000000     0.722400000000     0          
O1553    O      0.773900000000     0.742000000000     0.675300000000     0          
O1554    O      0.005000000000     0.972600000000     0.547100000000     0          
C1555    C      0.025900000000     0.830400000000     0.421000000000     0          
H1556    H      0.999900000000     0.817500000000     0.417800000000     0          
H1557    H      0.041800000000     0.815400000000     0.440300000000     0          
H1558    H      0.039700000000     0.831000000000     0.395400000000     0          
C1559    C      0.044200000000     0.808700000000     0.581300000000     0          
H1560    H      0.058300000000     0.832500000000     0.587200000000     0          
O1561    O      0.462900000000     0.462900000000     0.462900000000     0          
O1562    O      0.037100000000     0.537100000000     0.962900000000     0          
O1563    O      0.537100000000     0.962900000000     0.037100000000     0          
O1564    O      0.962900000000     0.037100000000     0.537100000000     0          
O1565    O      0.712900000000     0.212900000000     0.287100000000     0          
O1566    O      0.787100000000     0.787100000000     0.787100000000     0          
O1567    O      0.212900000000     0.287100000000     0.712900000000     0          
O1568    O      0.287100000000     0.712900000000     0.212900000000     0          
O1569    O      0.788200000000     0.288200000000     0.211800000000     0          
O1570    O      0.711800000000     0.711800000000     0.711800000000     0          
O1571    O      0.211800000000     0.788200000000     0.288200000000     0          
O1572    O      0.288200000000     0.211800000000     0.788200000000     0          
O1573    O      0.538200000000     0.538200000000     0.538200000000     0          
O1574    O      0.961800000000     0.461800000000     0.038200000000     0          
O1575    O      0.038200000000     0.961800000000     0.461800000000     0          
O1576    O      0.461800000000     0.038200000000     0.961800000000     0          


