data_VIKRUF

_audit_creation_method RASPA-1.0
_audit_creation_date 2020-11-2
_audit_author_name 'Rocio Bueno-Perez'

_cell_length_a    32.671
_cell_length_b    32.671
_cell_length_c    32.671
_cell_angle_alpha 90
_cell_angle_beta  90
_cell_angle_gamma 90
_cell_volume      34872.8

_symmetry_cell_setting          cubic
_symmetry_space_group_name_Hall 'P 1'
_symmetry_space_group_name_H-M  'P 1'
_symmetry_Int_Tables_number     1

_symmetry_equiv_pos_as_xyz 'x,y,z'

loop_
_atom_site_label
_atom_site_type_symbol
_atom_site_fract_x
_atom_site_fract_y
_atom_site_fract_z
_atom_site_charge
Zr1      Zr     0.217790000000     0.696790000000     0.225200000000     0          
Zr2      Zr     0.176430000000     0.795230000000     0.237350000000     0          
O1       O      0.171040000000     0.731480000000     0.262720000000     0          
O2       O      0.240130000000     0.816870000000     0.151450000000     0          
O3       O      0.985870000000     0.590480000000     0.938250000000     0          
O5       O      0.175750000000     0.823890000000     0.172750000000     0          
O6       O      0.021260000000     0.608030000000     0.993170000000     0          
O7       O      0.161220000000     0.684200000000     0.190430000000     0          
H1       H      0.162600000000     0.660100000000     0.180600000000     0          
H2       H      0.160200000000     0.699700000000     0.169500000000     0          
C1       C      0.012100000000     0.656750000000     0.943000000000     0          
O8       O      0.217430000000     0.757730000000     0.207940000000     0          
C2       C      0.009150000000     0.664170000000     0.902130000000     0          
H3       H      0.000200000000     0.643300000000     0.884900000000     0          
O9       O      0.373110000000     0.957540000000     0.977310000000     0          
C3       C      0.018500000000     0.689920000000     0.969420000000     0          
H4       H      0.016300000000     0.686300000000     0.997600000000     0          
O10      O      0.215200000000     0.876350000000     0.298330000000     0          
C4       C      0.192960000000     0.833850000000     0.102230000000     0          
C5       C      0.005790000000     0.615690000000     0.959680000000     0          
C6       C      0.166260000000     0.860700000000     0.975900000000     0          
C7       C      0.027870000000     0.734980000000     0.911200000000     0          
C8       C      0.202720000000     0.824490000000     0.146110000000     0          
C9       C      0.041340000000     0.774560000000     0.894040000000     0          
C10      C      0.302260000000     0.945600000000     0.990720000000     0          
C11      C      0.222800000000     0.831010000000     0.072160000000     0          
H5       H      0.249200000000     0.823600000000     0.079600000000     0          
C12      C      0.146200000000     0.883600000000     0.896030000000     0          
C13      C      0.072500000000     0.794500000000     0.911700000000     0          
H6       H      0.081700000000     0.785000000000     0.936900000000     0          
C14      C      0.190300000000     0.890100000000     0.954000000000     0          
C15      C      0.176000000000     0.853400000000     0.019400000000     0          
C16      C      0.028010000000     0.727900000000     0.953850000000     0          
H7       H      0.034600000000     0.749100000000     0.971600000000     0          
C17      C      0.229500000000     0.908600000000     0.968300000000     0          
C18      C      0.153800000000     0.846900000000     0.090940000000     0          
H8       H      0.133500000000     0.849800000000     0.110600000000     0          
C19      C      0.301400000000     0.920000000000     0.957000000000     0          
H9       H      0.325200000000     0.914700000000     0.942300000000     0          
C20      C      0.019100000000     0.702040000000     0.885430000000     0          
H10      H      0.019900000000     0.705400000000     0.857200000000     0          
C21      C      0.123700000000     0.849300000000     0.915000000000     0          
C22      C      0.134600000000     0.842600000000     0.957300000000     0          
H11      H      0.118700000000     0.824500000000     0.972500000000     0          
C23      C      0.265100000000     0.902700000000     0.945500000000     0          
H12      H      0.264100000000     0.886700000000     0.922000000000     0          
C24      C      0.092000000000     0.828410000000     0.894900000000     0          
C25      C      0.214200000000     0.838900000000     0.031200000000     0          
H13      H      0.234200000000     0.834300000000     0.011500000000     0          
C26      C      0.178400000000     0.900200000000     0.915090000000     0          
H14      H      0.193700000000     0.919700000000     0.901100000000     0          
C27      C      0.268810000000     0.952100000000     0.013300000000     0          
H15      H      0.270000000000     0.968700000000     0.036300000000     0          
C28      C      0.231700000000     0.933400000000     0.001800000000     0          
H16      H      0.208300000000     0.938000000000     0.017300000000     0          
C29      C      0.145690000000     0.855200000000     0.051210000000     0          
H17      H      0.119100000000     0.862500000000     0.044100000000     0          
O12      O      0.162820000000     0.859550000000     0.248530000000     0          
O13      O      0.342090000000     0.993800000000     0.029640000000     0          
C30      C      0.342490000000     0.966500000000     0.999730000000     0          
C31      C      0.180400000000     0.882500000000     0.276300000000     0          
H18      H      0.166900000000     0.906900000000     0.281800000000     0          
O4       O      0.282870000000     0.717130000000     0.217130000000     0          
O11      O      0.207540000000     0.792460000000     0.292460000000     0          
Zr1      Zr     0.053210000000     0.467790000000     0.975200000000     0          
Zr2      Zr     0.954770000000     0.426430000000     0.987350000000     0          
O1       O      0.018520000000     0.421040000000     0.012720000000     0          
O2       O      0.933130000000     0.490130000000     0.901450000000     0          
O3       O      0.159520000000     0.235870000000     0.688250000000     0          
O5       O      0.926110000000     0.425750000000     0.922750000000     0          
O6       O      0.141970000000     0.271260000000     0.743170000000     0          
O7       O      0.065800000000     0.411220000000     0.940430000000     0          
H1       H      0.089900000000     0.412600000000     0.930600000000     0          
H2       H      0.050300000000     0.410200000000     0.919500000000     0          
C1       C      0.093250000000     0.262100000000     0.693000000000     0          
O8       O      0.992270000000     0.467430000000     0.957940000000     0          
C2       C      0.085830000000     0.259150000000     0.652130000000     0          
H3       H      0.106700000000     0.250200000000     0.634900000000     0          
O9       O      0.792460000000     0.623110000000     0.727310000000     0          
C3       C      0.060080000000     0.268500000000     0.719420000000     0          
H4       H      0.063700000000     0.266300000000     0.747600000000     0          
O10      O      0.873650000000     0.465200000000     0.048330000000     0          
C4       C      0.916150000000     0.442960000000     0.852230000000     0          
C5       C      0.134310000000     0.255790000000     0.709680000000     0          
C6       C      0.889300000000     0.416260000000     0.725900000000     0          
C7       C      0.015020000000     0.277870000000     0.661200000000     0          
C8       C      0.925510000000     0.452720000000     0.896110000000     0          
C9       C      0.975440000000     0.291340000000     0.644040000000     0          
C10      C      0.804400000000     0.552260000000     0.740720000000     0          
C11      C      0.918990000000     0.472800000000     0.822160000000     0          
H5       H      0.926400000000     0.499200000000     0.829600000000     0          
C12      C      0.866400000000     0.396200000000     0.646030000000     0          
C13      C      0.955500000000     0.322500000000     0.661700000000     0          
H6       H      0.965000000000     0.331700000000     0.686900000000     0          
C14      C      0.859900000000     0.440300000000     0.704000000000     0          
C15      C      0.896600000000     0.426000000000     0.769400000000     0          
C16      C      0.022100000000     0.278010000000     0.703850000000     0          
H7       H      0.000900000000     0.284600000000     0.721600000000     0          
C17      C      0.841400000000     0.479500000000     0.718300000000     0          
C18      C      0.903100000000     0.403800000000     0.840940000000     0          
H8       H      0.900200000000     0.383500000000     0.860600000000     0          
C19      C      0.830000000000     0.551400000000     0.707000000000     0          
H9       H      0.835300000000     0.575200000000     0.692300000000     0          
C20      C      0.047960000000     0.269100000000     0.635430000000     0          
H10      H      0.044600000000     0.269900000000     0.607200000000     0          
C21      C      0.900700000000     0.373700000000     0.665000000000     0          
C22      C      0.907400000000     0.384600000000     0.707300000000     0          
H11      H      0.925500000000     0.368700000000     0.722500000000     0          
C23      C      0.847300000000     0.515100000000     0.695500000000     0          
H12      H      0.863300000000     0.514100000000     0.672000000000     0          
C24      C      0.921590000000     0.342000000000     0.644900000000     0          
C25      C      0.911100000000     0.464200000000     0.781200000000     0          
H13      H      0.915700000000     0.484200000000     0.761500000000     0          
C26      C      0.849800000000     0.428400000000     0.665090000000     0          
H14      H      0.830300000000     0.443700000000     0.651100000000     0          
C27      C      0.797900000000     0.518810000000     0.763300000000     0          
H15      H      0.781300000000     0.520000000000     0.786300000000     0          
C28      C      0.816600000000     0.481700000000     0.751800000000     0          
H16      H      0.812000000000     0.458300000000     0.767300000000     0          
C29      C      0.894800000000     0.395690000000     0.801210000000     0          
H17      H      0.887500000000     0.369100000000     0.794100000000     0          
O12      O      0.890450000000     0.412820000000     0.998530000000     0          
O13      O      0.756200000000     0.592090000000     0.779640000000     0          
C30      C      0.783500000000     0.592490000000     0.749730000000     0          
C31      C      0.867500000000     0.430400000000     0.026300000000     0          
H18      H      0.843100000000     0.416900000000     0.031800000000     0          
O4       O      0.032870000000     0.532870000000     0.967130000000     0          
O11      O      0.957540000000     0.457540000000     0.042460000000     0          
Zr1      Zr     0.282210000000     0.303210000000     0.725200000000     0          
Zr2      Zr     0.323570000000     0.204770000000     0.737350000000     0          
O1       O      0.328960000000     0.268520000000     0.762720000000     0          
O2       O      0.259870000000     0.183130000000     0.651450000000     0          
O3       O      0.514130000000     0.409520000000     0.438250000000     0          
O5       O      0.324250000000     0.176110000000     0.672750000000     0          
O6       O      0.478740000000     0.391970000000     0.493170000000     0          
O7       O      0.338780000000     0.315800000000     0.690430000000     0          
H1       H      0.337400000000     0.339900000000     0.680600000000     0          
H2       H      0.339800000000     0.300300000000     0.669500000000     0          
C1       C      0.487900000000     0.343250000000     0.443000000000     0          
O8       O      0.282570000000     0.242270000000     0.707940000000     0          
C2       C      0.490850000000     0.335830000000     0.402130000000     0          
H3       H      0.499800000000     0.356700000000     0.384900000000     0          
O9       O      0.126890000000     0.042460000000     0.477310000000     0          
C3       C      0.481500000000     0.310080000000     0.469420000000     0          
H4       H      0.483700000000     0.313700000000     0.497600000000     0          
O10      O      0.284800000000     0.123650000000     0.798330000000     0          
C4       C      0.307040000000     0.166150000000     0.602230000000     0          
C5       C      0.494210000000     0.384310000000     0.459680000000     0          
C6       C      0.333740000000     0.139300000000     0.475900000000     0          
C7       C      0.472130000000     0.265020000000     0.411200000000     0          
C8       C      0.297280000000     0.175510000000     0.646110000000     0          
C9       C      0.458660000000     0.225440000000     0.394040000000     0          
C10      C      0.197740000000     0.054400000000     0.490720000000     0          
C11      C      0.277200000000     0.168990000000     0.572160000000     0          
H5       H      0.250800000000     0.176400000000     0.579600000000     0          
C12      C      0.353800000000     0.116400000000     0.396030000000     0          
C13      C      0.427500000000     0.205500000000     0.411700000000     0          
H6       H      0.418300000000     0.215000000000     0.436900000000     0          
C14      C      0.309700000000     0.109900000000     0.454000000000     0          
C15      C      0.324000000000     0.146600000000     0.519400000000     0          
C16      C      0.471990000000     0.272100000000     0.453850000000     0          
H7       H      0.465400000000     0.250900000000     0.471600000000     0          
C17      C      0.270500000000     0.091400000000     0.468300000000     0          
C18      C      0.346200000000     0.153100000000     0.590940000000     0          
H8       H      0.366500000000     0.150200000000     0.610600000000     0          
C19      C      0.198600000000     0.080000000000     0.457000000000     0          
H9       H      0.174800000000     0.085300000000     0.442300000000     0          
C20      C      0.480900000000     0.297960000000     0.385430000000     0          
H10      H      0.480100000000     0.294600000000     0.357200000000     0          
C21      C      0.376300000000     0.150700000000     0.415000000000     0          
C22      C      0.365400000000     0.157400000000     0.457300000000     0          
H11      H      0.381300000000     0.175500000000     0.472500000000     0          
C23      C      0.234900000000     0.097300000000     0.445500000000     0          
H12      H      0.235900000000     0.113300000000     0.422000000000     0          
C24      C      0.408000000000     0.171590000000     0.394900000000     0          
C25      C      0.285800000000     0.161100000000     0.531200000000     0          
H13      H      0.265800000000     0.165700000000     0.511500000000     0          
C26      C      0.321600000000     0.099800000000     0.415090000000     0          
H14      H      0.306300000000     0.080300000000     0.401100000000     0          
C27      C      0.231190000000     0.047900000000     0.513300000000     0          
H15      H      0.230000000000     0.031300000000     0.536300000000     0          
C28      C      0.268300000000     0.066600000000     0.501800000000     0          
H16      H      0.291700000000     0.062000000000     0.517300000000     0          
C29      C      0.354310000000     0.144800000000     0.551210000000     0          
H17      H      0.380900000000     0.137500000000     0.544100000000     0          
O12      O      0.337180000000     0.140450000000     0.748530000000     0          
O13      O      0.157910000000     0.006200000000     0.529640000000     0          
C30      C      0.157510000000     0.033500000000     0.499730000000     0          
C31      C      0.319600000000     0.117500000000     0.776300000000     0          
H18      H      0.333100000000     0.093100000000     0.781800000000     0          
O4       O      0.217130000000     0.282870000000     0.717130000000     0          
O11      O      0.292460000000     0.207540000000     0.792460000000     0          
Zr1      Zr     0.446790000000     0.532210000000     0.475200000000     0          
Zr2      Zr     0.545230000000     0.573570000000     0.487350000000     0          
O1       O      0.481480000000     0.578960000000     0.512720000000     0          
O2       O      0.566870000000     0.509870000000     0.401450000000     0          
O3       O      0.340480000000     0.764130000000     0.188250000000     0          
O5       O      0.573890000000     0.574250000000     0.422750000000     0          
O6       O      0.358030000000     0.728740000000     0.243170000000     0          
O7       O      0.434200000000     0.588780000000     0.440430000000     0          
H1       H      0.410100000000     0.587400000000     0.430600000000     0          
H2       H      0.449700000000     0.589800000000     0.419500000000     0          
C1       C      0.406750000000     0.737900000000     0.193000000000     0          
O8       O      0.507730000000     0.532570000000     0.457940000000     0          
C2       C      0.414170000000     0.740850000000     0.152130000000     0          
H3       H      0.393300000000     0.749800000000     0.134900000000     0          
O9       O      0.707540000000     0.376890000000     0.227310000000     0          
C3       C      0.439920000000     0.731500000000     0.219420000000     0          
H4       H      0.436300000000     0.733700000000     0.247600000000     0          
O10      O      0.626350000000     0.534800000000     0.548330000000     0          
C4       C      0.583850000000     0.557040000000     0.352230000000     0          
C5       C      0.365690000000     0.744210000000     0.209680000000     0          
C6       C      0.610700000000     0.583740000000     0.225900000000     0          
C7       C      0.484980000000     0.722130000000     0.161200000000     0          
C8       C      0.574490000000     0.547280000000     0.396110000000     0          
C9       C      0.524560000000     0.708660000000     0.144040000000     0          
C10      C      0.695600000000     0.447740000000     0.240720000000     0          
C11      C      0.581010000000     0.527200000000     0.322160000000     0          
H5       H      0.573600000000     0.500800000000     0.329600000000     0          
C12      C      0.633600000000     0.603800000000     0.146030000000     0          
C13      C      0.544500000000     0.677500000000     0.161700000000     0          
H6       H      0.535000000000     0.668300000000     0.186900000000     0          
C14      C      0.640100000000     0.559700000000     0.204000000000     0          
C15      C      0.603400000000     0.574000000000     0.269400000000     0          
C16      C      0.477900000000     0.721990000000     0.203850000000     0          
H7       H      0.499100000000     0.715400000000     0.221600000000     0          
C17      C      0.658600000000     0.520500000000     0.218300000000     0          
C18      C      0.596900000000     0.596200000000     0.340940000000     0          
H8       H      0.599800000000     0.616500000000     0.360600000000     0          
C19      C      0.670000000000     0.448600000000     0.207000000000     0          
H9       H      0.664700000000     0.424800000000     0.192300000000     0          
C20      C      0.452040000000     0.730900000000     0.135430000000     0          
H10      H      0.455400000000     0.730100000000     0.107200000000     0          
C21      C      0.599300000000     0.626300000000     0.165000000000     0          
C22      C      0.592600000000     0.615400000000     0.207300000000     0          
H11      H      0.574500000000     0.631300000000     0.222500000000     0          
C23      C      0.652700000000     0.484900000000     0.195500000000     0          
H12      H      0.636700000000     0.485900000000     0.172000000000     0          
C24      C      0.578410000000     0.658000000000     0.144900000000     0          
C25      C      0.588900000000     0.535800000000     0.281200000000     0          
H13      H      0.584300000000     0.515800000000     0.261500000000     0          
C26      C      0.650200000000     0.571600000000     0.165090000000     0          
H14      H      0.669700000000     0.556300000000     0.151100000000     0          
C27      C      0.702100000000     0.481190000000     0.263300000000     0          
H15      H      0.718700000000     0.480000000000     0.286300000000     0          
C28      C      0.683400000000     0.518300000000     0.251800000000     0          
H16      H      0.688000000000     0.541700000000     0.267300000000     0          
C29      C      0.605200000000     0.604310000000     0.301210000000     0          
H17      H      0.612500000000     0.630900000000     0.294100000000     0          
O12      O      0.609550000000     0.587180000000     0.498530000000     0          
O13      O      0.743800000000     0.407910000000     0.279640000000     0          
C30      C      0.716500000000     0.407510000000     0.249730000000     0          
C31      C      0.632500000000     0.569600000000     0.526300000000     0          
H18      H      0.656900000000     0.583100000000     0.531800000000     0          
O4       O      0.467130000000     0.467130000000     0.467130000000     0          
O11      O      0.542460000000     0.542460000000     0.542460000000     0          
Zr1      Zr     0.717790000000     0.803210000000     0.774800000000     0          
Zr2      Zr     0.676430000000     0.704770000000     0.762650000000     0          
O1       O      0.671040000000     0.768520000000     0.737280000000     0          
O2       O      0.740130000000     0.683130000000     0.848550000000     0          
O3       O      0.485870000000     0.909520000000     0.061750000000     0          
O5       O      0.675750000000     0.676110000000     0.827250000000     0          
O6       O      0.521260000000     0.891970000000     0.006830000000     0          
O7       O      0.661220000000     0.815800000000     0.809570000000     0          
H1       H      0.662600000000     0.839900000000     0.819400000000     0          
H2       H      0.660200000000     0.800300000000     0.830500000000     0          
C1       C      0.512100000000     0.843250000000     0.057000000000     0          
O8       O      0.717430000000     0.742270000000     0.792060000000     0          
C2       C      0.509150000000     0.835830000000     0.097870000000     0          
H3       H      0.500200000000     0.856700000000     0.115100000000     0          
O9       O      0.873110000000     0.542460000000     0.022690000000     0          
C3       C      0.518500000000     0.810080000000     0.030580000000     0          
H4       H      0.516300000000     0.813700000000     0.002400000000     0          
O10      O      0.715200000000     0.623650000000     0.701670000000     0          
C4       C      0.692960000000     0.666150000000     0.897770000000     0          
C5       C      0.505790000000     0.884310000000     0.040320000000     0          
C6       C      0.666260000000     0.639300000000     0.024100000000     0          
C7       C      0.527870000000     0.765020000000     0.088800000000     0          
C8       C      0.702720000000     0.675510000000     0.853890000000     0          
C9       C      0.541340000000     0.725440000000     0.105960000000     0          
C10      C      0.802260000000     0.554400000000     0.009280000000     0          
C11      C      0.722800000000     0.668990000000     0.927840000000     0          
H5       H      0.749200000000     0.676400000000     0.920400000000     0          
C12      C      0.646200000000     0.616400000000     0.103970000000     0          
C13      C      0.572500000000     0.705500000000     0.088300000000     0          
H6       H      0.581700000000     0.715000000000     0.063100000000     0          
C14      C      0.690300000000     0.609900000000     0.046000000000     0          
C15      C      0.676000000000     0.646600000000     0.980600000000     0          
C16      C      0.528010000000     0.772100000000     0.046150000000     0          
H7       H      0.534600000000     0.750900000000     0.028400000000     0          
C17      C      0.729500000000     0.591400000000     0.031700000000     0          
C18      C      0.653800000000     0.653100000000     0.909060000000     0          
H8       H      0.633500000000     0.650200000000     0.889400000000     0          
C19      C      0.801400000000     0.580000000000     0.043000000000     0          
H9       H      0.825200000000     0.585300000000     0.057700000000     0          
C20      C      0.519100000000     0.797960000000     0.114570000000     0          
H10      H      0.519900000000     0.794600000000     0.142800000000     0          
C21      C      0.623700000000     0.650700000000     0.085000000000     0          
C22      C      0.634600000000     0.657400000000     0.042700000000     0          
H11      H      0.618700000000     0.675500000000     0.027500000000     0          
C23      C      0.765100000000     0.597300000000     0.054500000000     0          
H12      H      0.764100000000     0.613300000000     0.078000000000     0          
C24      C      0.592000000000     0.671590000000     0.105100000000     0          
C25      C      0.714200000000     0.661100000000     0.968800000000     0          
H13      H      0.734200000000     0.665700000000     0.988500000000     0          
C26      C      0.678400000000     0.599800000000     0.084910000000     0          
H14      H      0.693700000000     0.580300000000     0.098900000000     0          
C27      C      0.768810000000     0.547900000000     0.986700000000     0          
H15      H      0.770000000000     0.531300000000     0.963700000000     0          
C28      C      0.731700000000     0.566600000000     0.998200000000     0          
H16      H      0.708300000000     0.562000000000     0.982700000000     0          
C29      C      0.645690000000     0.644800000000     0.948790000000     0          
H17      H      0.619100000000     0.637500000000     0.955900000000     0          
O12      O      0.662820000000     0.640450000000     0.751470000000     0          
O13      O      0.842090000000     0.506200000000     0.970360000000     0          
C30      C      0.842490000000     0.533500000000     0.000270000000     0          
C31      C      0.680400000000     0.617500000000     0.723700000000     0          
H18      H      0.666900000000     0.593100000000     0.718200000000     0          
O4       O      0.782870000000     0.782870000000     0.782870000000     0          
O11      O      0.707540000000     0.707540000000     0.707540000000     0          
Zr1      Zr     0.946790000000     0.967790000000     0.524800000000     0          
Zr2      Zr     0.045230000000     0.926430000000     0.512650000000     0          
O1       O      0.981480000000     0.921040000000     0.487280000000     0          
O2       O      0.066870000000     0.990130000000     0.598550000000     0          
O3       O      0.840480000000     0.735870000000     0.811750000000     0          
O5       O      0.073890000000     0.925750000000     0.577250000000     0          
O6       O      0.858030000000     0.771260000000     0.756830000000     0          
O7       O      0.934200000000     0.911220000000     0.559570000000     0          
H1       H      0.910100000000     0.912600000000     0.569400000000     0          
H2       H      0.949700000000     0.910200000000     0.580500000000     0          
C1       C      0.906750000000     0.762100000000     0.807000000000     0          
O8       O      0.007730000000     0.967430000000     0.542060000000     0          
C2       C      0.914170000000     0.759150000000     0.847870000000     0          
H3       H      0.893300000000     0.750200000000     0.865100000000     0          
O9       O      0.207540000000     0.123110000000     0.772690000000     0          
C3       C      0.939920000000     0.768500000000     0.780580000000     0          
H4       H      0.936300000000     0.766300000000     0.752400000000     0          
O10      O      0.126350000000     0.965200000000     0.451670000000     0          
C4       C      0.083850000000     0.942960000000     0.647770000000     0          
C5       C      0.865690000000     0.755790000000     0.790320000000     0          
C6       C      0.110700000000     0.916260000000     0.774100000000     0          
C7       C      0.984980000000     0.777870000000     0.838800000000     0          
C8       C      0.074490000000     0.952720000000     0.603890000000     0          
C9       C      0.024560000000     0.791340000000     0.855960000000     0          
C10      C      0.195600000000     0.052260000000     0.759280000000     0          
C11      C      0.081010000000     0.972800000000     0.677840000000     0          
H5       H      0.073600000000     0.999200000000     0.670400000000     0          
C12      C      0.133600000000     0.896200000000     0.853970000000     0          
C13      C      0.044500000000     0.822500000000     0.838300000000     0          
H6       H      0.035000000000     0.831700000000     0.813100000000     0          
C14      C      0.140100000000     0.940300000000     0.796000000000     0          
C15      C      0.103400000000     0.926000000000     0.730600000000     0          
C16      C      0.977900000000     0.778010000000     0.796150000000     0          
H7       H      0.999100000000     0.784600000000     0.778400000000     0          
C17      C      0.158600000000     0.979500000000     0.781700000000     0          
C18      C      0.096900000000     0.903800000000     0.659060000000     0          
H8       H      0.099800000000     0.883500000000     0.639400000000     0          
C19      C      0.170000000000     0.051400000000     0.793000000000     0          
H9       H      0.164700000000     0.075200000000     0.807700000000     0          
C20      C      0.952040000000     0.769100000000     0.864570000000     0          
H10      H      0.955400000000     0.769900000000     0.892800000000     0          
C21      C      0.099300000000     0.873700000000     0.835000000000     0          
C22      C      0.092600000000     0.884600000000     0.792700000000     0          
H11      H      0.074500000000     0.868700000000     0.777500000000     0          
C23      C      0.152700000000     0.015100000000     0.804500000000     0          
H12      H      0.136700000000     0.014100000000     0.828000000000     0          
C24      C      0.078410000000     0.842000000000     0.855100000000     0          
C25      C      0.088900000000     0.964200000000     0.718800000000     0          
H13      H      0.084300000000     0.984200000000     0.738500000000     0          
C26      C      0.150200000000     0.928400000000     0.834910000000     0          
H14      H      0.169700000000     0.943700000000     0.848900000000     0          
C27      C      0.202100000000     0.018810000000     0.736700000000     0          
H15      H      0.218700000000     0.020000000000     0.713700000000     0          
C28      C      0.183400000000     0.981700000000     0.748200000000     0          
H16      H      0.188000000000     0.958300000000     0.732700000000     0          
C29      C      0.105200000000     0.895690000000     0.698790000000     0          
H17      H      0.112500000000     0.869100000000     0.705900000000     0          
O12      O      0.109550000000     0.912820000000     0.501470000000     0          
O13      O      0.243800000000     0.092090000000     0.720360000000     0          
C30      C      0.216500000000     0.092490000000     0.750270000000     0          
C31      C      0.132500000000     0.930400000000     0.473700000000     0          
H18      H      0.156900000000     0.916900000000     0.468200000000     0          
O4       O      0.967130000000     0.032870000000     0.532870000000     0          
O11      O      0.042460000000     0.957540000000     0.457540000000     0          
Zr1      Zr     0.782210000000     0.196790000000     0.274800000000     0          
Zr2      Zr     0.823570000000     0.295230000000     0.262650000000     0          
O1       O      0.828960000000     0.231480000000     0.237280000000     0          
O2       O      0.759870000000     0.316870000000     0.348550000000     0          
O3       O      0.014130000000     0.090480000000     0.561750000000     0          
O5       O      0.824250000000     0.323890000000     0.327250000000     0          
O6       O      0.978740000000     0.108030000000     0.506830000000     0          
O7       O      0.838780000000     0.184200000000     0.309570000000     0          
H1       H      0.837400000000     0.160100000000     0.319400000000     0          
H2       H      0.839800000000     0.199700000000     0.330500000000     0          
C1       C      0.987900000000     0.156750000000     0.557000000000     0          
O8       O      0.782570000000     0.257730000000     0.292060000000     0          
C2       C      0.990850000000     0.164170000000     0.597870000000     0          
H3       H      0.999800000000     0.143300000000     0.615100000000     0          
O9       O      0.626890000000     0.457540000000     0.522690000000     0          
C3       C      0.981500000000     0.189920000000     0.530580000000     0          
H4       H      0.983700000000     0.186300000000     0.502400000000     0          
O10      O      0.784800000000     0.376350000000     0.201670000000     0          
C4       C      0.807040000000     0.333850000000     0.397770000000     0          
C5       C      0.994210000000     0.115690000000     0.540320000000     0          
C6       C      0.833740000000     0.360700000000     0.524100000000     0          
C7       C      0.972130000000     0.234980000000     0.588800000000     0          
C8       C      0.797280000000     0.324490000000     0.353890000000     0          
C9       C      0.958660000000     0.274560000000     0.605960000000     0          
C10      C      0.697740000000     0.445600000000     0.509280000000     0          
C11      C      0.777200000000     0.331010000000     0.427840000000     0          
H5       H      0.750800000000     0.323600000000     0.420400000000     0          
C12      C      0.853800000000     0.383600000000     0.603970000000     0          
C13      C      0.927500000000     0.294500000000     0.588300000000     0          
H6       H      0.918300000000     0.285000000000     0.563100000000     0          
C14      C      0.809700000000     0.390100000000     0.546000000000     0          
C15      C      0.824000000000     0.353400000000     0.480600000000     0          
C16      C      0.971990000000     0.227900000000     0.546150000000     0          
H7       H      0.965400000000     0.249100000000     0.528400000000     0          
C17      C      0.770500000000     0.408600000000     0.531700000000     0          
C18      C      0.846200000000     0.346900000000     0.409060000000     0          
H8       H      0.866500000000     0.349800000000     0.389400000000     0          
C19      C      0.698600000000     0.420000000000     0.543000000000     0          
H9       H      0.674800000000     0.414700000000     0.557700000000     0          
C20      C      0.980900000000     0.202040000000     0.614570000000     0          
H10      H      0.980100000000     0.205400000000     0.642800000000     0          
C21      C      0.876300000000     0.349300000000     0.585000000000     0          
C22      C      0.865400000000     0.342600000000     0.542700000000     0          
H11      H      0.881300000000     0.324500000000     0.527500000000     0          
C23      C      0.734900000000     0.402700000000     0.554500000000     0          
H12      H      0.735900000000     0.386700000000     0.578000000000     0          
C24      C      0.908000000000     0.328410000000     0.605100000000     0          
C25      C      0.785800000000     0.338900000000     0.468800000000     0          
H13      H      0.765800000000     0.334300000000     0.488500000000     0          
C26      C      0.821600000000     0.400200000000     0.584910000000     0          
H14      H      0.806300000000     0.419700000000     0.598900000000     0          
C27      C      0.731190000000     0.452100000000     0.486700000000     0          
H15      H      0.730000000000     0.468700000000     0.463700000000     0          
C28      C      0.768300000000     0.433400000000     0.498200000000     0          
H16      H      0.791700000000     0.438000000000     0.482700000000     0          
C29      C      0.854310000000     0.355200000000     0.448790000000     0          
H17      H      0.880900000000     0.362500000000     0.455900000000     0          
O12      O      0.837180000000     0.359550000000     0.251470000000     0          
O13      O      0.657910000000     0.493800000000     0.470360000000     0          
C30      C      0.657510000000     0.466500000000     0.500270000000     0          
C31      C      0.819600000000     0.382500000000     0.223700000000     0          
H18      H      0.833100000000     0.406900000000     0.218200000000     0          
O4       O      0.717130000000     0.217130000000     0.282870000000     0          
O11      O      0.792460000000     0.292460000000     0.207540000000     0          
Zr1      Zr     0.553210000000     0.032210000000     0.024800000000     0          
Zr2      Zr     0.454770000000     0.073570000000     0.012650000000     0          
O1       O      0.518520000000     0.078960000000     0.987280000000     0          
O2       O      0.433130000000     0.009870000000     0.098550000000     0          
O3       O      0.659520000000     0.264130000000     0.311750000000     0          
O5       O      0.426110000000     0.074250000000     0.077250000000     0          
O6       O      0.641970000000     0.228740000000     0.256830000000     0          
O7       O      0.565800000000     0.088780000000     0.059570000000     0          
H1       H      0.589900000000     0.087400000000     0.069400000000     0          
H2       H      0.550300000000     0.089800000000     0.080500000000     0          
C1       C      0.593250000000     0.237900000000     0.307000000000     0          
O8       O      0.492270000000     0.032570000000     0.042060000000     0          
C2       C      0.585830000000     0.240850000000     0.347870000000     0          
H3       H      0.606700000000     0.249800000000     0.365100000000     0          
O9       O      0.292460000000     0.876890000000     0.272690000000     0          
C3       C      0.560080000000     0.231500000000     0.280580000000     0          
H4       H      0.563700000000     0.233700000000     0.252400000000     0          
O10      O      0.373650000000     0.034800000000     0.951670000000     0          
C4       C      0.416150000000     0.057040000000     0.147770000000     0          
C5       C      0.634310000000     0.244210000000     0.290320000000     0          
C6       C      0.389300000000     0.083740000000     0.274100000000     0          
C7       C      0.515020000000     0.222130000000     0.338800000000     0          
C8       C      0.425510000000     0.047280000000     0.103890000000     0          
C9       C      0.475440000000     0.208660000000     0.355960000000     0          
C10      C      0.304400000000     0.947740000000     0.259280000000     0          
C11      C      0.418990000000     0.027200000000     0.177840000000     0          
H5       H      0.426400000000     0.000800000000     0.170400000000     0          
C12      C      0.366400000000     0.103800000000     0.353970000000     0          
C13      C      0.455500000000     0.177500000000     0.338300000000     0          
H6       H      0.465000000000     0.168300000000     0.313100000000     0          
C14      C      0.359900000000     0.059700000000     0.296000000000     0          
C15      C      0.396600000000     0.074000000000     0.230600000000     0          
C16      C      0.522100000000     0.221990000000     0.296150000000     0          
H7       H      0.500900000000     0.215400000000     0.278400000000     0          
C17      C      0.341400000000     0.020500000000     0.281700000000     0          
C18      C      0.403100000000     0.096200000000     0.159060000000     0          
H8       H      0.400200000000     0.116500000000     0.139400000000     0          
C19      C      0.330000000000     0.948600000000     0.293000000000     0          
H9       H      0.335300000000     0.924800000000     0.307700000000     0          
C20      C      0.547960000000     0.230900000000     0.364570000000     0          
H10      H      0.544600000000     0.230100000000     0.392800000000     0          
C21      C      0.400700000000     0.126300000000     0.335000000000     0          
C22      C      0.407400000000     0.115400000000     0.292700000000     0          
H11      H      0.425500000000     0.131300000000     0.277500000000     0          
C23      C      0.347300000000     0.984900000000     0.304500000000     0          
H12      H      0.363300000000     0.985900000000     0.328000000000     0          
C24      C      0.421590000000     0.158000000000     0.355100000000     0          
C25      C      0.411100000000     0.035800000000     0.218800000000     0          
H13      H      0.415700000000     0.015800000000     0.238500000000     0          
C26      C      0.349800000000     0.071600000000     0.334910000000     0          
H14      H      0.330300000000     0.056300000000     0.348900000000     0          
C27      C      0.297900000000     0.981190000000     0.236700000000     0          
H15      H      0.281300000000     0.980000000000     0.213700000000     0          
C28      C      0.316600000000     0.018300000000     0.248200000000     0          
H16      H      0.312000000000     0.041700000000     0.232700000000     0          
C29      C      0.394800000000     0.104310000000     0.198790000000     0          
H17      H      0.387500000000     0.130900000000     0.205900000000     0          
O12      O      0.390450000000     0.087180000000     0.001470000000     0          
O13      O      0.256200000000     0.907910000000     0.220360000000     0          
C30      C      0.283500000000     0.907510000000     0.250270000000     0          
C31      C      0.367500000000     0.069600000000     0.973700000000     0          
H18      H      0.343100000000     0.083100000000     0.968200000000     0          
O4       O      0.532870000000     0.967130000000     0.032870000000     0          
O11      O      0.457540000000     0.042460000000     0.957540000000     0          
Zr1      Zr     0.225200000000     0.217790000000     0.696790000000     0          
Zr2      Zr     0.237350000000     0.176430000000     0.795230000000     0          
O1       O      0.262720000000     0.171040000000     0.731480000000     0          
O2       O      0.151450000000     0.240130000000     0.816870000000     0          
O3       O      0.938250000000     0.985870000000     0.590480000000     0          
O5       O      0.172750000000     0.175750000000     0.823890000000     0          
O6       O      0.993170000000     0.021260000000     0.608030000000     0          
O7       O      0.190430000000     0.161220000000     0.684200000000     0          
H1       H      0.180600000000     0.162600000000     0.660100000000     0          
H2       H      0.169500000000     0.160200000000     0.699700000000     0          
C1       C      0.943000000000     0.012100000000     0.656750000000     0          
O8       O      0.207940000000     0.217430000000     0.757730000000     0          
C2       C      0.902130000000     0.009150000000     0.664170000000     0          
H3       H      0.884900000000     0.000200000000     0.643300000000     0          
O9       O      0.977310000000     0.373110000000     0.957540000000     0          
C3       C      0.969420000000     0.018500000000     0.689920000000     0          
H4       H      0.997600000000     0.016300000000     0.686300000000     0          
O10      O      0.298330000000     0.215200000000     0.876350000000     0          
C4       C      0.102230000000     0.192960000000     0.833850000000     0          
C5       C      0.959680000000     0.005790000000     0.615690000000     0          
C6       C      0.975900000000     0.166260000000     0.860700000000     0          
C7       C      0.911200000000     0.027870000000     0.734980000000     0          
C8       C      0.146110000000     0.202720000000     0.824490000000     0          
C9       C      0.894040000000     0.041340000000     0.774560000000     0          
C10      C      0.990720000000     0.302260000000     0.945600000000     0          
C11      C      0.072160000000     0.222800000000     0.831010000000     0          
H5       H      0.079600000000     0.249200000000     0.823600000000     0          
C12      C      0.896030000000     0.146200000000     0.883600000000     0          
C13      C      0.911700000000     0.072500000000     0.794500000000     0          
H6       H      0.936900000000     0.081700000000     0.785000000000     0          
C14      C      0.954000000000     0.190300000000     0.890100000000     0          
C15      C      0.019400000000     0.176000000000     0.853400000000     0          
C16      C      0.953850000000     0.028010000000     0.727900000000     0          
H7       H      0.971600000000     0.034600000000     0.749100000000     0          
C17      C      0.968300000000     0.229500000000     0.908600000000     0          
C18      C      0.090940000000     0.153800000000     0.846900000000     0          
H8       H      0.110600000000     0.133500000000     0.849800000000     0          
C19      C      0.957000000000     0.301400000000     0.920000000000     0          
H9       H      0.942300000000     0.325200000000     0.914700000000     0          
C20      C      0.885430000000     0.019100000000     0.702040000000     0          
H10      H      0.857200000000     0.019900000000     0.705400000000     0          
C21      C      0.915000000000     0.123700000000     0.849300000000     0          
C22      C      0.957300000000     0.134600000000     0.842600000000     0          
H11      H      0.972500000000     0.118700000000     0.824500000000     0          
C23      C      0.945500000000     0.265100000000     0.902700000000     0          
H12      H      0.922000000000     0.264100000000     0.886700000000     0          
C24      C      0.894900000000     0.092000000000     0.828410000000     0          
C25      C      0.031200000000     0.214200000000     0.838900000000     0          
H13      H      0.011500000000     0.234200000000     0.834300000000     0          
C26      C      0.915090000000     0.178400000000     0.900200000000     0          
H14      H      0.901100000000     0.193700000000     0.919700000000     0          
C27      C      0.013300000000     0.268810000000     0.952100000000     0          
H15      H      0.036300000000     0.270000000000     0.968700000000     0          
C28      C      0.001800000000     0.231700000000     0.933400000000     0          
H16      H      0.017300000000     0.208300000000     0.938000000000     0          
C29      C      0.051210000000     0.145690000000     0.855200000000     0          
H17      H      0.044100000000     0.119100000000     0.862500000000     0          
O12      O      0.248530000000     0.162820000000     0.859550000000     0          
O13      O      0.029640000000     0.342090000000     0.993800000000     0          
C30      C      0.999730000000     0.342490000000     0.966500000000     0          
C31      C      0.276300000000     0.180400000000     0.882500000000     0          
H18      H      0.281800000000     0.166900000000     0.906900000000     0          
Zr1      Zr     0.532210000000     0.475200000000     0.446790000000     0          
Zr2      Zr     0.573570000000     0.487350000000     0.545230000000     0          
O1       O      0.578960000000     0.512720000000     0.481480000000     0          
O2       O      0.509870000000     0.401450000000     0.566870000000     0          
O3       O      0.764130000000     0.188250000000     0.340480000000     0          
O5       O      0.574250000000     0.422750000000     0.573890000000     0          
O6       O      0.728740000000     0.243170000000     0.358030000000     0          
O7       O      0.588780000000     0.440430000000     0.434200000000     0          
H1       H      0.587400000000     0.430600000000     0.410100000000     0          
H2       H      0.589800000000     0.419500000000     0.449700000000     0          
C1       C      0.737900000000     0.193000000000     0.406750000000     0          
O8       O      0.532570000000     0.457940000000     0.507730000000     0          
C2       C      0.740850000000     0.152130000000     0.414170000000     0          
H3       H      0.749800000000     0.134900000000     0.393300000000     0          
O9       O      0.376890000000     0.227310000000     0.707540000000     0          
C3       C      0.731500000000     0.219420000000     0.439920000000     0          
H4       H      0.733700000000     0.247600000000     0.436300000000     0          
O10      O      0.534800000000     0.548330000000     0.626350000000     0          
C4       C      0.557040000000     0.352230000000     0.583850000000     0          
C5       C      0.744210000000     0.209680000000     0.365690000000     0          
C6       C      0.583740000000     0.225900000000     0.610700000000     0          
C7       C      0.722130000000     0.161200000000     0.484980000000     0          
C8       C      0.547280000000     0.396110000000     0.574490000000     0          
C9       C      0.708660000000     0.144040000000     0.524560000000     0          
C10      C      0.447740000000     0.240720000000     0.695600000000     0          
C11      C      0.527200000000     0.322160000000     0.581010000000     0          
H5       H      0.500800000000     0.329600000000     0.573600000000     0          
C12      C      0.603800000000     0.146030000000     0.633600000000     0          
C13      C      0.677500000000     0.161700000000     0.544500000000     0          
H6       H      0.668300000000     0.186900000000     0.535000000000     0          
C14      C      0.559700000000     0.204000000000     0.640100000000     0          
C15      C      0.574000000000     0.269400000000     0.603400000000     0          
C16      C      0.721990000000     0.203850000000     0.477900000000     0          
H7       H      0.715400000000     0.221600000000     0.499100000000     0          
C17      C      0.520500000000     0.218300000000     0.658600000000     0          
C18      C      0.596200000000     0.340940000000     0.596900000000     0          
H8       H      0.616500000000     0.360600000000     0.599800000000     0          
C19      C      0.448600000000     0.207000000000     0.670000000000     0          
H9       H      0.424800000000     0.192300000000     0.664700000000     0          
C20      C      0.730900000000     0.135430000000     0.452040000000     0          
H10      H      0.730100000000     0.107200000000     0.455400000000     0          
C21      C      0.626300000000     0.165000000000     0.599300000000     0          
C22      C      0.615400000000     0.207300000000     0.592600000000     0          
H11      H      0.631300000000     0.222500000000     0.574500000000     0          
C23      C      0.484900000000     0.195500000000     0.652700000000     0          
H12      H      0.485900000000     0.172000000000     0.636700000000     0          
C24      C      0.658000000000     0.144900000000     0.578410000000     0          
C25      C      0.535800000000     0.281200000000     0.588900000000     0          
H13      H      0.515800000000     0.261500000000     0.584300000000     0          
C26      C      0.571600000000     0.165090000000     0.650200000000     0          
H14      H      0.556300000000     0.151100000000     0.669700000000     0          
C27      C      0.481190000000     0.263300000000     0.702100000000     0          
H15      H      0.480000000000     0.286300000000     0.718700000000     0          
C28      C      0.518300000000     0.251800000000     0.683400000000     0          
H16      H      0.541700000000     0.267300000000     0.688000000000     0          
C29      C      0.604310000000     0.301210000000     0.605200000000     0          
H17      H      0.630900000000     0.294100000000     0.612500000000     0          
O12      O      0.587180000000     0.498530000000     0.609550000000     0          
O13      O      0.407910000000     0.279640000000     0.743800000000     0          
C30      C      0.407510000000     0.249730000000     0.716500000000     0          
C31      C      0.569600000000     0.526300000000     0.632500000000     0          
H18      H      0.583100000000     0.531800000000     0.656900000000     0          
Zr1      Zr     0.274800000000     0.782210000000     0.196790000000     0          
Zr2      Zr     0.262650000000     0.823570000000     0.295230000000     0          
O1       O      0.237280000000     0.828960000000     0.231480000000     0          
O2       O      0.348550000000     0.759870000000     0.316870000000     0          
O3       O      0.561750000000     0.014130000000     0.090480000000     0          
O5       O      0.327250000000     0.824250000000     0.323890000000     0          
O6       O      0.506830000000     0.978740000000     0.108030000000     0          
O7       O      0.309570000000     0.838780000000     0.184200000000     0          
H1       H      0.319400000000     0.837400000000     0.160100000000     0          
H2       H      0.330500000000     0.839800000000     0.199700000000     0          
C1       C      0.557000000000     0.987900000000     0.156750000000     0          
O8       O      0.292060000000     0.782570000000     0.257730000000     0          
C2       C      0.597870000000     0.990850000000     0.164170000000     0          
H3       H      0.615100000000     0.999800000000     0.143300000000     0          
O9       O      0.522690000000     0.626890000000     0.457540000000     0          
C3       C      0.530580000000     0.981500000000     0.189920000000     0          
H4       H      0.502400000000     0.983700000000     0.186300000000     0          
O10      O      0.201670000000     0.784800000000     0.376350000000     0          
C4       C      0.397770000000     0.807040000000     0.333850000000     0          
C5       C      0.540320000000     0.994210000000     0.115690000000     0          
C6       C      0.524100000000     0.833740000000     0.360700000000     0          
C7       C      0.588800000000     0.972130000000     0.234980000000     0          
C8       C      0.353890000000     0.797280000000     0.324490000000     0          
C9       C      0.605960000000     0.958660000000     0.274560000000     0          
C10      C      0.509280000000     0.697740000000     0.445600000000     0          
C11      C      0.427840000000     0.777200000000     0.331010000000     0          
H5       H      0.420400000000     0.750800000000     0.323600000000     0          
C12      C      0.603970000000     0.853800000000     0.383600000000     0          
C13      C      0.588300000000     0.927500000000     0.294500000000     0          
H6       H      0.563100000000     0.918300000000     0.285000000000     0          
C14      C      0.546000000000     0.809700000000     0.390100000000     0          
C15      C      0.480600000000     0.824000000000     0.353400000000     0          
C16      C      0.546150000000     0.971990000000     0.227900000000     0          
H7       H      0.528400000000     0.965400000000     0.249100000000     0          
C17      C      0.531700000000     0.770500000000     0.408600000000     0          
C18      C      0.409060000000     0.846200000000     0.346900000000     0          
H8       H      0.389400000000     0.866500000000     0.349800000000     0          
C19      C      0.543000000000     0.698600000000     0.420000000000     0          
H9       H      0.557700000000     0.674800000000     0.414700000000     0          
C20      C      0.614570000000     0.980900000000     0.202040000000     0          
H10      H      0.642800000000     0.980100000000     0.205400000000     0          
C21      C      0.585000000000     0.876300000000     0.349300000000     0          
C22      C      0.542700000000     0.865400000000     0.342600000000     0          
H11      H      0.527500000000     0.881300000000     0.324500000000     0          
C23      C      0.554500000000     0.734900000000     0.402700000000     0          
H12      H      0.578000000000     0.735900000000     0.386700000000     0          
C24      C      0.605100000000     0.908000000000     0.328410000000     0          
C25      C      0.468800000000     0.785800000000     0.338900000000     0          
H13      H      0.488500000000     0.765800000000     0.334300000000     0          
C26      C      0.584910000000     0.821600000000     0.400200000000     0          
H14      H      0.598900000000     0.806300000000     0.419700000000     0          
C27      C      0.486700000000     0.731190000000     0.452100000000     0          
H15      H      0.463700000000     0.730000000000     0.468700000000     0          
C28      C      0.498200000000     0.768300000000     0.433400000000     0          
H16      H      0.482700000000     0.791700000000     0.438000000000     0          
C29      C      0.448790000000     0.854310000000     0.355200000000     0          
H17      H      0.455900000000     0.880900000000     0.362500000000     0          
O12      O      0.251470000000     0.837180000000     0.359550000000     0          
O13      O      0.470360000000     0.657910000000     0.493800000000     0          
C30      C      0.500270000000     0.657510000000     0.466500000000     0          
C31      C      0.223700000000     0.819600000000     0.382500000000     0          
H18      H      0.218200000000     0.833100000000     0.406900000000     0          
Zr1      Zr     0.967790000000     0.524800000000     0.946790000000     0          
Zr2      Zr     0.926430000000     0.512650000000     0.045230000000     0          
O1       O      0.921040000000     0.487280000000     0.981480000000     0          
O2       O      0.990130000000     0.598550000000     0.066870000000     0          
O3       O      0.735870000000     0.811750000000     0.840480000000     0          
O5       O      0.925750000000     0.577250000000     0.073890000000     0          
O6       O      0.771260000000     0.756830000000     0.858030000000     0          
O7       O      0.911220000000     0.559570000000     0.934200000000     0          
H1       H      0.912600000000     0.569400000000     0.910100000000     0          
H2       H      0.910200000000     0.580500000000     0.949700000000     0          
C1       C      0.762100000000     0.807000000000     0.906750000000     0          
O8       O      0.967430000000     0.542060000000     0.007730000000     0          
C2       C      0.759150000000     0.847870000000     0.914170000000     0          
H3       H      0.750200000000     0.865100000000     0.893300000000     0          
O9       O      0.123110000000     0.772690000000     0.207540000000     0          
C3       C      0.768500000000     0.780580000000     0.939920000000     0          
H4       H      0.766300000000     0.752400000000     0.936300000000     0          
O10      O      0.965200000000     0.451670000000     0.126350000000     0          
C4       C      0.942960000000     0.647770000000     0.083850000000     0          
C5       C      0.755790000000     0.790320000000     0.865690000000     0          
C6       C      0.916260000000     0.774100000000     0.110700000000     0          
C7       C      0.777870000000     0.838800000000     0.984980000000     0          
C8       C      0.952720000000     0.603890000000     0.074490000000     0          
C9       C      0.791340000000     0.855960000000     0.024560000000     0          
C10      C      0.052260000000     0.759280000000     0.195600000000     0          
C11      C      0.972800000000     0.677840000000     0.081010000000     0          
H5       H      0.999200000000     0.670400000000     0.073600000000     0          
C12      C      0.896200000000     0.853970000000     0.133600000000     0          
C13      C      0.822500000000     0.838300000000     0.044500000000     0          
H6       H      0.831700000000     0.813100000000     0.035000000000     0          
C14      C      0.940300000000     0.796000000000     0.140100000000     0          
C15      C      0.926000000000     0.730600000000     0.103400000000     0          
C16      C      0.778010000000     0.796150000000     0.977900000000     0          
H7       H      0.784600000000     0.778400000000     0.999100000000     0          
C17      C      0.979500000000     0.781700000000     0.158600000000     0          
C18      C      0.903800000000     0.659060000000     0.096900000000     0          
H8       H      0.883500000000     0.639400000000     0.099800000000     0          
C19      C      0.051400000000     0.793000000000     0.170000000000     0          
H9       H      0.075200000000     0.807700000000     0.164700000000     0          
C20      C      0.769100000000     0.864570000000     0.952040000000     0          
H10      H      0.769900000000     0.892800000000     0.955400000000     0          
C21      C      0.873700000000     0.835000000000     0.099300000000     0          
C22      C      0.884600000000     0.792700000000     0.092600000000     0          
H11      H      0.868700000000     0.777500000000     0.074500000000     0          
C23      C      0.015100000000     0.804500000000     0.152700000000     0          
H12      H      0.014100000000     0.828000000000     0.136700000000     0          
C24      C      0.842000000000     0.855100000000     0.078410000000     0          
C25      C      0.964200000000     0.718800000000     0.088900000000     0          
H13      H      0.984200000000     0.738500000000     0.084300000000     0          
C26      C      0.928400000000     0.834910000000     0.150200000000     0          
H14      H      0.943700000000     0.848900000000     0.169700000000     0          
C27      C      0.018810000000     0.736700000000     0.202100000000     0          
H15      H      0.020000000000     0.713700000000     0.218700000000     0          
C28      C      0.981700000000     0.748200000000     0.183400000000     0          
H16      H      0.958300000000     0.732700000000     0.188000000000     0          
C29      C      0.895690000000     0.698790000000     0.105200000000     0          
H17      H      0.869100000000     0.705900000000     0.112500000000     0          
O12      O      0.912820000000     0.501470000000     0.109550000000     0          
O13      O      0.092090000000     0.720360000000     0.243800000000     0          
C30      C      0.092490000000     0.750270000000     0.216500000000     0          
C31      C      0.930400000000     0.473700000000     0.132500000000     0          
H18      H      0.916900000000     0.468200000000     0.156900000000     0          
Zr1      Zr     0.725200000000     0.282210000000     0.303210000000     0          
Zr2      Zr     0.737350000000     0.323570000000     0.204770000000     0          
O1       O      0.762720000000     0.328960000000     0.268520000000     0          
O2       O      0.651450000000     0.259870000000     0.183130000000     0          
O3       O      0.438250000000     0.514130000000     0.409520000000     0          
O5       O      0.672750000000     0.324250000000     0.176110000000     0          
O6       O      0.493170000000     0.478740000000     0.391970000000     0          
O7       O      0.690430000000     0.338780000000     0.315800000000     0          
H1       H      0.680600000000     0.337400000000     0.339900000000     0          
H2       H      0.669500000000     0.339800000000     0.300300000000     0          
C1       C      0.443000000000     0.487900000000     0.343250000000     0          
O8       O      0.707940000000     0.282570000000     0.242270000000     0          
C2       C      0.402130000000     0.490850000000     0.335830000000     0          
H3       H      0.384900000000     0.499800000000     0.356700000000     0          
O9       O      0.477310000000     0.126890000000     0.042460000000     0          
C3       C      0.469420000000     0.481500000000     0.310080000000     0          
H4       H      0.497600000000     0.483700000000     0.313700000000     0          
O10      O      0.798330000000     0.284800000000     0.123650000000     0          
C4       C      0.602230000000     0.307040000000     0.166150000000     0          
C5       C      0.459680000000     0.494210000000     0.384310000000     0          
C6       C      0.475900000000     0.333740000000     0.139300000000     0          
C7       C      0.411200000000     0.472130000000     0.265020000000     0          
C8       C      0.646110000000     0.297280000000     0.175510000000     0          
C9       C      0.394040000000     0.458660000000     0.225440000000     0          
C10      C      0.490720000000     0.197740000000     0.054400000000     0          
C11      C      0.572160000000     0.277200000000     0.168990000000     0          
H5       H      0.579600000000     0.250800000000     0.176400000000     0          
C12      C      0.396030000000     0.353800000000     0.116400000000     0          
C13      C      0.411700000000     0.427500000000     0.205500000000     0          
H6       H      0.436900000000     0.418300000000     0.215000000000     0          
C14      C      0.454000000000     0.309700000000     0.109900000000     0          
C15      C      0.519400000000     0.324000000000     0.146600000000     0          
C16      C      0.453850000000     0.471990000000     0.272100000000     0          
H7       H      0.471600000000     0.465400000000     0.250900000000     0          
C17      C      0.468300000000     0.270500000000     0.091400000000     0          
C18      C      0.590940000000     0.346200000000     0.153100000000     0          
H8       H      0.610600000000     0.366500000000     0.150200000000     0          
C19      C      0.457000000000     0.198600000000     0.080000000000     0          
H9       H      0.442300000000     0.174800000000     0.085300000000     0          
C20      C      0.385430000000     0.480900000000     0.297960000000     0          
H10      H      0.357200000000     0.480100000000     0.294600000000     0          
C21      C      0.415000000000     0.376300000000     0.150700000000     0          
C22      C      0.457300000000     0.365400000000     0.157400000000     0          
H11      H      0.472500000000     0.381300000000     0.175500000000     0          
C23      C      0.445500000000     0.234900000000     0.097300000000     0          
H12      H      0.422000000000     0.235900000000     0.113300000000     0          
C24      C      0.394900000000     0.408000000000     0.171590000000     0          
C25      C      0.531200000000     0.285800000000     0.161100000000     0          
H13      H      0.511500000000     0.265800000000     0.165700000000     0          
C26      C      0.415090000000     0.321600000000     0.099800000000     0          
H14      H      0.401100000000     0.306300000000     0.080300000000     0          
C27      C      0.513300000000     0.231190000000     0.047900000000     0          
H15      H      0.536300000000     0.230000000000     0.031300000000     0          
C28      C      0.501800000000     0.268300000000     0.066600000000     0          
H16      H      0.517300000000     0.291700000000     0.062000000000     0          
C29      C      0.551210000000     0.354310000000     0.144800000000     0          
H17      H      0.544100000000     0.380900000000     0.137500000000     0          
O12      O      0.748530000000     0.337180000000     0.140450000000     0          
O13      O      0.529640000000     0.157910000000     0.006200000000     0          
C30      C      0.499730000000     0.157510000000     0.033500000000     0          
C31      C      0.776300000000     0.319600000000     0.117500000000     0          
H18      H      0.781800000000     0.333100000000     0.093100000000     0          
Zr1      Zr     0.467790000000     0.975200000000     0.053210000000     0          
Zr2      Zr     0.426430000000     0.987350000000     0.954770000000     0          
O1       O      0.421040000000     0.012720000000     0.018520000000     0          
O2       O      0.490130000000     0.901450000000     0.933130000000     0          
O3       O      0.235870000000     0.688250000000     0.159520000000     0          
O5       O      0.425750000000     0.922750000000     0.926110000000     0          
O6       O      0.271260000000     0.743170000000     0.141970000000     0          
O7       O      0.411220000000     0.940430000000     0.065800000000     0          
H1       H      0.412600000000     0.930600000000     0.089900000000     0          
H2       H      0.410200000000     0.919500000000     0.050300000000     0          
C1       C      0.262100000000     0.693000000000     0.093250000000     0          
O8       O      0.467430000000     0.957940000000     0.992270000000     0          
C2       C      0.259150000000     0.652130000000     0.085830000000     0          
H3       H      0.250200000000     0.634900000000     0.106700000000     0          
O9       O      0.623110000000     0.727310000000     0.792460000000     0          
C3       C      0.268500000000     0.719420000000     0.060080000000     0          
H4       H      0.266300000000     0.747600000000     0.063700000000     0          
O10      O      0.465200000000     0.048330000000     0.873650000000     0          
C4       C      0.442960000000     0.852230000000     0.916150000000     0          
C5       C      0.255790000000     0.709680000000     0.134310000000     0          
C6       C      0.416260000000     0.725900000000     0.889300000000     0          
C7       C      0.277870000000     0.661200000000     0.015020000000     0          
C8       C      0.452720000000     0.896110000000     0.925510000000     0          
C9       C      0.291340000000     0.644040000000     0.975440000000     0          
C10      C      0.552260000000     0.740720000000     0.804400000000     0          
C11      C      0.472800000000     0.822160000000     0.918990000000     0          
H5       H      0.499200000000     0.829600000000     0.926400000000     0          
C12      C      0.396200000000     0.646030000000     0.866400000000     0          
C13      C      0.322500000000     0.661700000000     0.955500000000     0          
H6       H      0.331700000000     0.686900000000     0.965000000000     0          
C14      C      0.440300000000     0.704000000000     0.859900000000     0          
C15      C      0.426000000000     0.769400000000     0.896600000000     0          
C16      C      0.278010000000     0.703850000000     0.022100000000     0          
H7       H      0.284600000000     0.721600000000     0.000900000000     0          
C17      C      0.479500000000     0.718300000000     0.841400000000     0          
C18      C      0.403800000000     0.840940000000     0.903100000000     0          
H8       H      0.383500000000     0.860600000000     0.900200000000     0          
C19      C      0.551400000000     0.707000000000     0.830000000000     0          
H9       H      0.575200000000     0.692300000000     0.835300000000     0          
C20      C      0.269100000000     0.635430000000     0.047960000000     0          
H10      H      0.269900000000     0.607200000000     0.044600000000     0          
C21      C      0.373700000000     0.665000000000     0.900700000000     0          
C22      C      0.384600000000     0.707300000000     0.907400000000     0          
H11      H      0.368700000000     0.722500000000     0.925500000000     0          
C23      C      0.515100000000     0.695500000000     0.847300000000     0          
H12      H      0.514100000000     0.672000000000     0.863300000000     0          
C24      C      0.342000000000     0.644900000000     0.921590000000     0          
C25      C      0.464200000000     0.781200000000     0.911100000000     0          
H13      H      0.484200000000     0.761500000000     0.915700000000     0          
C26      C      0.428400000000     0.665090000000     0.849800000000     0          
H14      H      0.443700000000     0.651100000000     0.830300000000     0          
C27      C      0.518810000000     0.763300000000     0.797900000000     0          
H15      H      0.520000000000     0.786300000000     0.781300000000     0          
C28      C      0.481700000000     0.751800000000     0.816600000000     0          
H16      H      0.458300000000     0.767300000000     0.812000000000     0          
C29      C      0.395690000000     0.801210000000     0.894800000000     0          
H17      H      0.369100000000     0.794100000000     0.887500000000     0          
O12      O      0.412820000000     0.998530000000     0.890450000000     0          
O13      O      0.592090000000     0.779640000000     0.756200000000     0          
C30      C      0.592490000000     0.749730000000     0.783500000000     0          
C31      C      0.430400000000     0.026300000000     0.867500000000     0          
H18      H      0.416900000000     0.031800000000     0.843100000000     0          
Zr1      Zr     0.774800000000     0.717790000000     0.803210000000     0          
Zr2      Zr     0.762650000000     0.676430000000     0.704770000000     0          
O1       O      0.737280000000     0.671040000000     0.768520000000     0          
O2       O      0.848550000000     0.740130000000     0.683130000000     0          
O3       O      0.061750000000     0.485870000000     0.909520000000     0          
O5       O      0.827250000000     0.675750000000     0.676110000000     0          
O6       O      0.006830000000     0.521260000000     0.891970000000     0          
O7       O      0.809570000000     0.661220000000     0.815800000000     0          
H1       H      0.819400000000     0.662600000000     0.839900000000     0          
H2       H      0.830500000000     0.660200000000     0.800300000000     0          
C1       C      0.057000000000     0.512100000000     0.843250000000     0          
O8       O      0.792060000000     0.717430000000     0.742270000000     0          
C2       C      0.097870000000     0.509150000000     0.835830000000     0          
H3       H      0.115100000000     0.500200000000     0.856700000000     0          
O9       O      0.022690000000     0.873110000000     0.542460000000     0          
C3       C      0.030580000000     0.518500000000     0.810080000000     0          
H4       H      0.002400000000     0.516300000000     0.813700000000     0          
O10      O      0.701670000000     0.715200000000     0.623650000000     0          
C4       C      0.897770000000     0.692960000000     0.666150000000     0          
C5       C      0.040320000000     0.505790000000     0.884310000000     0          
C6       C      0.024100000000     0.666260000000     0.639300000000     0          
C7       C      0.088800000000     0.527870000000     0.765020000000     0          
C8       C      0.853890000000     0.702720000000     0.675510000000     0          
C9       C      0.105960000000     0.541340000000     0.725440000000     0          
C10      C      0.009280000000     0.802260000000     0.554400000000     0          
C11      C      0.927840000000     0.722800000000     0.668990000000     0          
H5       H      0.920400000000     0.749200000000     0.676400000000     0          
C12      C      0.103970000000     0.646200000000     0.616400000000     0          
C13      C      0.088300000000     0.572500000000     0.705500000000     0          
H6       H      0.063100000000     0.581700000000     0.715000000000     0          
C14      C      0.046000000000     0.690300000000     0.609900000000     0          
C15      C      0.980600000000     0.676000000000     0.646600000000     0          
C16      C      0.046150000000     0.528010000000     0.772100000000     0          
H7       H      0.028400000000     0.534600000000     0.750900000000     0          
C17      C      0.031700000000     0.729500000000     0.591400000000     0          
C18      C      0.909060000000     0.653800000000     0.653100000000     0          
H8       H      0.889400000000     0.633500000000     0.650200000000     0          
C19      C      0.043000000000     0.801400000000     0.580000000000     0          
H9       H      0.057700000000     0.825200000000     0.585300000000     0          
C20      C      0.114570000000     0.519100000000     0.797960000000     0          
H10      H      0.142800000000     0.519900000000     0.794600000000     0          
C21      C      0.085000000000     0.623700000000     0.650700000000     0          
C22      C      0.042700000000     0.634600000000     0.657400000000     0          
H11      H      0.027500000000     0.618700000000     0.675500000000     0          
C23      C      0.054500000000     0.765100000000     0.597300000000     0          
H12      H      0.078000000000     0.764100000000     0.613300000000     0          
C24      C      0.105100000000     0.592000000000     0.671590000000     0          
C25      C      0.968800000000     0.714200000000     0.661100000000     0          
H13      H      0.988500000000     0.734200000000     0.665700000000     0          
C26      C      0.084910000000     0.678400000000     0.599800000000     0          
H14      H      0.098900000000     0.693700000000     0.580300000000     0          
C27      C      0.986700000000     0.768810000000     0.547900000000     0          
H15      H      0.963700000000     0.770000000000     0.531300000000     0          
C28      C      0.998200000000     0.731700000000     0.566600000000     0          
H16      H      0.982700000000     0.708300000000     0.562000000000     0          
C29      C      0.948790000000     0.645690000000     0.644800000000     0          
H17      H      0.955900000000     0.619100000000     0.637500000000     0          
O12      O      0.751470000000     0.662820000000     0.640450000000     0          
O13      O      0.970360000000     0.842090000000     0.506200000000     0          
C30      C      0.000270000000     0.842490000000     0.533500000000     0          
C31      C      0.723700000000     0.680400000000     0.617500000000     0          
H18      H      0.718200000000     0.666900000000     0.593100000000     0          
Zr1      Zr     0.032210000000     0.024800000000     0.553210000000     0          
Zr2      Zr     0.073570000000     0.012650000000     0.454770000000     0          
O1       O      0.078960000000     0.987280000000     0.518520000000     0          
O2       O      0.009870000000     0.098550000000     0.433130000000     0          
O3       O      0.264130000000     0.311750000000     0.659520000000     0          
O5       O      0.074250000000     0.077250000000     0.426110000000     0          
O6       O      0.228740000000     0.256830000000     0.641970000000     0          
O7       O      0.088780000000     0.059570000000     0.565800000000     0          
H1       H      0.087400000000     0.069400000000     0.589900000000     0          
H2       H      0.089800000000     0.080500000000     0.550300000000     0          
C1       C      0.237900000000     0.307000000000     0.593250000000     0          
O8       O      0.032570000000     0.042060000000     0.492270000000     0          
C2       C      0.240850000000     0.347870000000     0.585830000000     0          
H3       H      0.249800000000     0.365100000000     0.606700000000     0          
O9       O      0.876890000000     0.272690000000     0.292460000000     0          
C3       C      0.231500000000     0.280580000000     0.560080000000     0          
H4       H      0.233700000000     0.252400000000     0.563700000000     0          
O10      O      0.034800000000     0.951670000000     0.373650000000     0          
C4       C      0.057040000000     0.147770000000     0.416150000000     0          
C5       C      0.244210000000     0.290320000000     0.634310000000     0          
C6       C      0.083740000000     0.274100000000     0.389300000000     0          
C7       C      0.222130000000     0.338800000000     0.515020000000     0          
C8       C      0.047280000000     0.103890000000     0.425510000000     0          
C9       C      0.208660000000     0.355960000000     0.475440000000     0          
C10      C      0.947740000000     0.259280000000     0.304400000000     0          
C11      C      0.027200000000     0.177840000000     0.418990000000     0          
H5       H      0.000800000000     0.170400000000     0.426400000000     0          
C12      C      0.103800000000     0.353970000000     0.366400000000     0          
C13      C      0.177500000000     0.338300000000     0.455500000000     0          
H6       H      0.168300000000     0.313100000000     0.465000000000     0          
C14      C      0.059700000000     0.296000000000     0.359900000000     0          
C15      C      0.074000000000     0.230600000000     0.396600000000     0          
C16      C      0.221990000000     0.296150000000     0.522100000000     0          
H7       H      0.215400000000     0.278400000000     0.500900000000     0          
C17      C      0.020500000000     0.281700000000     0.341400000000     0          
C18      C      0.096200000000     0.159060000000     0.403100000000     0          
H8       H      0.116500000000     0.139400000000     0.400200000000     0          
C19      C      0.948600000000     0.293000000000     0.330000000000     0          
H9       H      0.924800000000     0.307700000000     0.335300000000     0          
C20      C      0.230900000000     0.364570000000     0.547960000000     0          
H10      H      0.230100000000     0.392800000000     0.544600000000     0          
C21      C      0.126300000000     0.335000000000     0.400700000000     0          
C22      C      0.115400000000     0.292700000000     0.407400000000     0          
H11      H      0.131300000000     0.277500000000     0.425500000000     0          
C23      C      0.984900000000     0.304500000000     0.347300000000     0          
H12      H      0.985900000000     0.328000000000     0.363300000000     0          
C24      C      0.158000000000     0.355100000000     0.421590000000     0          
C25      C      0.035800000000     0.218800000000     0.411100000000     0          
H13      H      0.015800000000     0.238500000000     0.415700000000     0          
C26      C      0.071600000000     0.334910000000     0.349800000000     0          
H14      H      0.056300000000     0.348900000000     0.330300000000     0          
C27      C      0.981190000000     0.236700000000     0.297900000000     0          
H15      H      0.980000000000     0.213700000000     0.281300000000     0          
C28      C      0.018300000000     0.248200000000     0.316600000000     0          
H16      H      0.041700000000     0.232700000000     0.312000000000     0          
C29      C      0.104310000000     0.198790000000     0.394800000000     0          
H17      H      0.130900000000     0.205900000000     0.387500000000     0          
O12      O      0.087180000000     0.001470000000     0.390450000000     0          
O13      O      0.907910000000     0.220360000000     0.256200000000     0          
C30      C      0.907510000000     0.250270000000     0.283500000000     0          
C31      C      0.069600000000     0.973700000000     0.367500000000     0          
H18      H      0.083100000000     0.968200000000     0.343100000000     0          
Zr1      Zr     0.696790000000     0.225200000000     0.217790000000     0          
Zr2      Zr     0.795230000000     0.237350000000     0.176430000000     0          
O1       O      0.731480000000     0.262720000000     0.171040000000     0          
O2       O      0.816870000000     0.151450000000     0.240130000000     0          
O3       O      0.590480000000     0.938250000000     0.985870000000     0          
O5       O      0.823890000000     0.172750000000     0.175750000000     0          
O6       O      0.608030000000     0.993170000000     0.021260000000     0          
O7       O      0.684200000000     0.190430000000     0.161220000000     0          
H1       H      0.660100000000     0.180600000000     0.162600000000     0          
H2       H      0.699700000000     0.169500000000     0.160200000000     0          
C1       C      0.656750000000     0.943000000000     0.012100000000     0          
O8       O      0.757730000000     0.207940000000     0.217430000000     0          
C2       C      0.664170000000     0.902130000000     0.009150000000     0          
H3       H      0.643300000000     0.884900000000     0.000200000000     0          
O9       O      0.957540000000     0.977310000000     0.373110000000     0          
C3       C      0.689920000000     0.969420000000     0.018500000000     0          
H4       H      0.686300000000     0.997600000000     0.016300000000     0          
O10      O      0.876350000000     0.298330000000     0.215200000000     0          
C4       C      0.833850000000     0.102230000000     0.192960000000     0          
C5       C      0.615690000000     0.959680000000     0.005790000000     0          
C6       C      0.860700000000     0.975900000000     0.166260000000     0          
C7       C      0.734980000000     0.911200000000     0.027870000000     0          
C8       C      0.824490000000     0.146110000000     0.202720000000     0          
C9       C      0.774560000000     0.894040000000     0.041340000000     0          
C10      C      0.945600000000     0.990720000000     0.302260000000     0          
C11      C      0.831010000000     0.072160000000     0.222800000000     0          
H5       H      0.823600000000     0.079600000000     0.249200000000     0          
C12      C      0.883600000000     0.896030000000     0.146200000000     0          
C13      C      0.794500000000     0.911700000000     0.072500000000     0          
H6       H      0.785000000000     0.936900000000     0.081700000000     0          
C14      C      0.890100000000     0.954000000000     0.190300000000     0          
C15      C      0.853400000000     0.019400000000     0.176000000000     0          
C16      C      0.727900000000     0.953850000000     0.028010000000     0          
H7       H      0.749100000000     0.971600000000     0.034600000000     0          
C17      C      0.908600000000     0.968300000000     0.229500000000     0          
C18      C      0.846900000000     0.090940000000     0.153800000000     0          
H8       H      0.849800000000     0.110600000000     0.133500000000     0          
C19      C      0.920000000000     0.957000000000     0.301400000000     0          
H9       H      0.914700000000     0.942300000000     0.325200000000     0          
C20      C      0.702040000000     0.885430000000     0.019100000000     0          
H10      H      0.705400000000     0.857200000000     0.019900000000     0          
C21      C      0.849300000000     0.915000000000     0.123700000000     0          
C22      C      0.842600000000     0.957300000000     0.134600000000     0          
H11      H      0.824500000000     0.972500000000     0.118700000000     0          
C23      C      0.902700000000     0.945500000000     0.265100000000     0          
H12      H      0.886700000000     0.922000000000     0.264100000000     0          
C24      C      0.828410000000     0.894900000000     0.092000000000     0          
C25      C      0.838900000000     0.031200000000     0.214200000000     0          
H13      H      0.834300000000     0.011500000000     0.234200000000     0          
C26      C      0.900200000000     0.915090000000     0.178400000000     0          
H14      H      0.919700000000     0.901100000000     0.193700000000     0          
C27      C      0.952100000000     0.013300000000     0.268810000000     0          
H15      H      0.968700000000     0.036300000000     0.270000000000     0          
C28      C      0.933400000000     0.001800000000     0.231700000000     0          
H16      H      0.938000000000     0.017300000000     0.208300000000     0          
C29      C      0.855200000000     0.051210000000     0.145690000000     0          
H17      H      0.862500000000     0.044100000000     0.119100000000     0          
O12      O      0.859550000000     0.248530000000     0.162820000000     0          
O13      O      0.993800000000     0.029640000000     0.342090000000     0          
C30      C      0.966500000000     0.999730000000     0.342490000000     0          
C31      C      0.882500000000     0.276300000000     0.180400000000     0          
H18      H      0.906900000000     0.281800000000     0.166900000000     0          
Zr1      Zr     0.196790000000     0.274800000000     0.782210000000     0          
Zr2      Zr     0.295230000000     0.262650000000     0.823570000000     0          
O1       O      0.231480000000     0.237280000000     0.828960000000     0          
O2       O      0.316870000000     0.348550000000     0.759870000000     0          
O3       O      0.090480000000     0.561750000000     0.014130000000     0          
O5       O      0.323890000000     0.327250000000     0.824250000000     0          
O6       O      0.108030000000     0.506830000000     0.978740000000     0          
O7       O      0.184200000000     0.309570000000     0.838780000000     0          
H1       H      0.160100000000     0.319400000000     0.837400000000     0          
H2       H      0.199700000000     0.330500000000     0.839800000000     0          
C1       C      0.156750000000     0.557000000000     0.987900000000     0          
O8       O      0.257730000000     0.292060000000     0.782570000000     0          
C2       C      0.164170000000     0.597870000000     0.990850000000     0          
H3       H      0.143300000000     0.615100000000     0.999800000000     0          
O9       O      0.457540000000     0.522690000000     0.626890000000     0          
C3       C      0.189920000000     0.530580000000     0.981500000000     0          
H4       H      0.186300000000     0.502400000000     0.983700000000     0          
O10      O      0.376350000000     0.201670000000     0.784800000000     0          
C4       C      0.333850000000     0.397770000000     0.807040000000     0          
C5       C      0.115690000000     0.540320000000     0.994210000000     0          
C6       C      0.360700000000     0.524100000000     0.833740000000     0          
C7       C      0.234980000000     0.588800000000     0.972130000000     0          
C8       C      0.324490000000     0.353890000000     0.797280000000     0          
C9       C      0.274560000000     0.605960000000     0.958660000000     0          
C10      C      0.445600000000     0.509280000000     0.697740000000     0          
C11      C      0.331010000000     0.427840000000     0.777200000000     0          
H5       H      0.323600000000     0.420400000000     0.750800000000     0          
C12      C      0.383600000000     0.603970000000     0.853800000000     0          
C13      C      0.294500000000     0.588300000000     0.927500000000     0          
H6       H      0.285000000000     0.563100000000     0.918300000000     0          
C14      C      0.390100000000     0.546000000000     0.809700000000     0          
C15      C      0.353400000000     0.480600000000     0.824000000000     0          
C16      C      0.227900000000     0.546150000000     0.971990000000     0          
H7       H      0.249100000000     0.528400000000     0.965400000000     0          
C17      C      0.408600000000     0.531700000000     0.770500000000     0          
C18      C      0.346900000000     0.409060000000     0.846200000000     0          
H8       H      0.349800000000     0.389400000000     0.866500000000     0          
C19      C      0.420000000000     0.543000000000     0.698600000000     0          
H9       H      0.414700000000     0.557700000000     0.674800000000     0          
C20      C      0.202040000000     0.614570000000     0.980900000000     0          
H10      H      0.205400000000     0.642800000000     0.980100000000     0          
C21      C      0.349300000000     0.585000000000     0.876300000000     0          
C22      C      0.342600000000     0.542700000000     0.865400000000     0          
H11      H      0.324500000000     0.527500000000     0.881300000000     0          
C23      C      0.402700000000     0.554500000000     0.734900000000     0          
H12      H      0.386700000000     0.578000000000     0.735900000000     0          
C24      C      0.328410000000     0.605100000000     0.908000000000     0          
C25      C      0.338900000000     0.468800000000     0.785800000000     0          
H13      H      0.334300000000     0.488500000000     0.765800000000     0          
C26      C      0.400200000000     0.584910000000     0.821600000000     0          
H14      H      0.419700000000     0.598900000000     0.806300000000     0          
C27      C      0.452100000000     0.486700000000     0.731190000000     0          
H15      H      0.468700000000     0.463700000000     0.730000000000     0          
C28      C      0.433400000000     0.498200000000     0.768300000000     0          
H16      H      0.438000000000     0.482700000000     0.791700000000     0          
C29      C      0.355200000000     0.448790000000     0.854310000000     0          
H17      H      0.362500000000     0.455900000000     0.880900000000     0          
O12      O      0.359550000000     0.251470000000     0.837180000000     0          
O13      O      0.493800000000     0.470360000000     0.657910000000     0          
C30      C      0.466500000000     0.500270000000     0.657510000000     0          
C31      C      0.382500000000     0.223700000000     0.819600000000     0          
H18      H      0.406900000000     0.218200000000     0.833100000000     0          
Zr1      Zr     0.475200000000     0.446790000000     0.532210000000     0          
Zr2      Zr     0.487350000000     0.545230000000     0.573570000000     0          
O1       O      0.512720000000     0.481480000000     0.578960000000     0          
O2       O      0.401450000000     0.566870000000     0.509870000000     0          
O3       O      0.188250000000     0.340480000000     0.764130000000     0          
O5       O      0.422750000000     0.573890000000     0.574250000000     0          
O6       O      0.243170000000     0.358030000000     0.728740000000     0          
O7       O      0.440430000000     0.434200000000     0.588780000000     0          
H1       H      0.430600000000     0.410100000000     0.587400000000     0          
H2       H      0.419500000000     0.449700000000     0.589800000000     0          
C1       C      0.193000000000     0.406750000000     0.737900000000     0          
O8       O      0.457940000000     0.507730000000     0.532570000000     0          
C2       C      0.152130000000     0.414170000000     0.740850000000     0          
H3       H      0.134900000000     0.393300000000     0.749800000000     0          
O9       O      0.227310000000     0.707540000000     0.376890000000     0          
C3       C      0.219420000000     0.439920000000     0.731500000000     0          
H4       H      0.247600000000     0.436300000000     0.733700000000     0          
O10      O      0.548330000000     0.626350000000     0.534800000000     0          
C4       C      0.352230000000     0.583850000000     0.557040000000     0          
C5       C      0.209680000000     0.365690000000     0.744210000000     0          
C6       C      0.225900000000     0.610700000000     0.583740000000     0          
C7       C      0.161200000000     0.484980000000     0.722130000000     0          
C8       C      0.396110000000     0.574490000000     0.547280000000     0          
C9       C      0.144040000000     0.524560000000     0.708660000000     0          
C10      C      0.240720000000     0.695600000000     0.447740000000     0          
C11      C      0.322160000000     0.581010000000     0.527200000000     0          
H5       H      0.329600000000     0.573600000000     0.500800000000     0          
C12      C      0.146030000000     0.633600000000     0.603800000000     0          
C13      C      0.161700000000     0.544500000000     0.677500000000     0          
H6       H      0.186900000000     0.535000000000     0.668300000000     0          
C14      C      0.204000000000     0.640100000000     0.559700000000     0          
C15      C      0.269400000000     0.603400000000     0.574000000000     0          
C16      C      0.203850000000     0.477900000000     0.721990000000     0          
H7       H      0.221600000000     0.499100000000     0.715400000000     0          
C17      C      0.218300000000     0.658600000000     0.520500000000     0          
C18      C      0.340940000000     0.596900000000     0.596200000000     0          
H8       H      0.360600000000     0.599800000000     0.616500000000     0          
C19      C      0.207000000000     0.670000000000     0.448600000000     0          
H9       H      0.192300000000     0.664700000000     0.424800000000     0          
C20      C      0.135430000000     0.452040000000     0.730900000000     0          
H10      H      0.107200000000     0.455400000000     0.730100000000     0          
C21      C      0.165000000000     0.599300000000     0.626300000000     0          
C22      C      0.207300000000     0.592600000000     0.615400000000     0          
H11      H      0.222500000000     0.574500000000     0.631300000000     0          
C23      C      0.195500000000     0.652700000000     0.484900000000     0          
H12      H      0.172000000000     0.636700000000     0.485900000000     0          
C24      C      0.144900000000     0.578410000000     0.658000000000     0          
C25      C      0.281200000000     0.588900000000     0.535800000000     0          
H13      H      0.261500000000     0.584300000000     0.515800000000     0          
C26      C      0.165090000000     0.650200000000     0.571600000000     0          
H14      H      0.151100000000     0.669700000000     0.556300000000     0          
C27      C      0.263300000000     0.702100000000     0.481190000000     0          
H15      H      0.286300000000     0.718700000000     0.480000000000     0          
C28      C      0.251800000000     0.683400000000     0.518300000000     0          
H16      H      0.267300000000     0.688000000000     0.541700000000     0          
C29      C      0.301210000000     0.605200000000     0.604310000000     0          
H17      H      0.294100000000     0.612500000000     0.630900000000     0          
O12      O      0.498530000000     0.609550000000     0.587180000000     0          
O13      O      0.279640000000     0.743800000000     0.407910000000     0          
C30      C      0.249730000000     0.716500000000     0.407510000000     0          
C31      C      0.526300000000     0.632500000000     0.569600000000     0          
H18      H      0.531800000000     0.656900000000     0.583100000000     0          
Zr1      Zr     0.303210000000     0.725200000000     0.282210000000     0          
Zr2      Zr     0.204770000000     0.737350000000     0.323570000000     0          
O1       O      0.268520000000     0.762720000000     0.328960000000     0          
O2       O      0.183130000000     0.651450000000     0.259870000000     0          
O3       O      0.409520000000     0.438250000000     0.514130000000     0          
O5       O      0.176110000000     0.672750000000     0.324250000000     0          
O6       O      0.391970000000     0.493170000000     0.478740000000     0          
O7       O      0.315800000000     0.690430000000     0.338780000000     0          
H1       H      0.339900000000     0.680600000000     0.337400000000     0          
H2       H      0.300300000000     0.669500000000     0.339800000000     0          
C1       C      0.343250000000     0.443000000000     0.487900000000     0          
O8       O      0.242270000000     0.707940000000     0.282570000000     0          
C2       C      0.335830000000     0.402130000000     0.490850000000     0          
H3       H      0.356700000000     0.384900000000     0.499800000000     0          
O9       O      0.042460000000     0.477310000000     0.126890000000     0          
C3       C      0.310080000000     0.469420000000     0.481500000000     0          
H4       H      0.313700000000     0.497600000000     0.483700000000     0          
O10      O      0.123650000000     0.798330000000     0.284800000000     0          
C4       C      0.166150000000     0.602230000000     0.307040000000     0          
C5       C      0.384310000000     0.459680000000     0.494210000000     0          
C6       C      0.139300000000     0.475900000000     0.333740000000     0          
C7       C      0.265020000000     0.411200000000     0.472130000000     0          
C8       C      0.175510000000     0.646110000000     0.297280000000     0          
C9       C      0.225440000000     0.394040000000     0.458660000000     0          
C10      C      0.054400000000     0.490720000000     0.197740000000     0          
C11      C      0.168990000000     0.572160000000     0.277200000000     0          
H5       H      0.176400000000     0.579600000000     0.250800000000     0          
C12      C      0.116400000000     0.396030000000     0.353800000000     0          
C13      C      0.205500000000     0.411700000000     0.427500000000     0          
H6       H      0.215000000000     0.436900000000     0.418300000000     0          
C14      C      0.109900000000     0.454000000000     0.309700000000     0          
C15      C      0.146600000000     0.519400000000     0.324000000000     0          
C16      C      0.272100000000     0.453850000000     0.471990000000     0          
H7       H      0.250900000000     0.471600000000     0.465400000000     0          
C17      C      0.091400000000     0.468300000000     0.270500000000     0          
C18      C      0.153100000000     0.590940000000     0.346200000000     0          
H8       H      0.150200000000     0.610600000000     0.366500000000     0          
C19      C      0.080000000000     0.457000000000     0.198600000000     0          
H9       H      0.085300000000     0.442300000000     0.174800000000     0          
C20      C      0.297960000000     0.385430000000     0.480900000000     0          
H10      H      0.294600000000     0.357200000000     0.480100000000     0          
C21      C      0.150700000000     0.415000000000     0.376300000000     0          
C22      C      0.157400000000     0.457300000000     0.365400000000     0          
H11      H      0.175500000000     0.472500000000     0.381300000000     0          
C23      C      0.097300000000     0.445500000000     0.234900000000     0          
H12      H      0.113300000000     0.422000000000     0.235900000000     0          
C24      C      0.171590000000     0.394900000000     0.408000000000     0          
C25      C      0.161100000000     0.531200000000     0.285800000000     0          
H13      H      0.165700000000     0.511500000000     0.265800000000     0          
C26      C      0.099800000000     0.415090000000     0.321600000000     0          
H14      H      0.080300000000     0.401100000000     0.306300000000     0          
C27      C      0.047900000000     0.513300000000     0.231190000000     0          
H15      H      0.031300000000     0.536300000000     0.230000000000     0          
C28      C      0.066600000000     0.501800000000     0.268300000000     0          
H16      H      0.062000000000     0.517300000000     0.291700000000     0          
C29      C      0.144800000000     0.551210000000     0.354310000000     0          
H17      H      0.137500000000     0.544100000000     0.380900000000     0          
O12      O      0.140450000000     0.748530000000     0.337180000000     0          
O13      O      0.006200000000     0.529640000000     0.157910000000     0          
C30      C      0.033500000000     0.499730000000     0.157510000000     0          
C31      C      0.117500000000     0.776300000000     0.319600000000     0          
H18      H      0.093100000000     0.781800000000     0.333100000000     0          
Zr1      Zr     0.024800000000     0.553210000000     0.032210000000     0          
Zr2      Zr     0.012650000000     0.454770000000     0.073570000000     0          
O1       O      0.987280000000     0.518520000000     0.078960000000     0          
O2       O      0.098550000000     0.433130000000     0.009870000000     0          
O3       O      0.311750000000     0.659520000000     0.264130000000     0          
O5       O      0.077250000000     0.426110000000     0.074250000000     0          
O6       O      0.256830000000     0.641970000000     0.228740000000     0          
O7       O      0.059570000000     0.565800000000     0.088780000000     0          
H1       H      0.069400000000     0.589900000000     0.087400000000     0          
H2       H      0.080500000000     0.550300000000     0.089800000000     0          
C1       C      0.307000000000     0.593250000000     0.237900000000     0          
O8       O      0.042060000000     0.492270000000     0.032570000000     0          
C2       C      0.347870000000     0.585830000000     0.240850000000     0          
H3       H      0.365100000000     0.606700000000     0.249800000000     0          
O9       O      0.272690000000     0.292460000000     0.876890000000     0          
C3       C      0.280580000000     0.560080000000     0.231500000000     0          
H4       H      0.252400000000     0.563700000000     0.233700000000     0          
O10      O      0.951670000000     0.373650000000     0.034800000000     0          
C4       C      0.147770000000     0.416150000000     0.057040000000     0          
C5       C      0.290320000000     0.634310000000     0.244210000000     0          
C6       C      0.274100000000     0.389300000000     0.083740000000     0          
C7       C      0.338800000000     0.515020000000     0.222130000000     0          
C8       C      0.103890000000     0.425510000000     0.047280000000     0          
C9       C      0.355960000000     0.475440000000     0.208660000000     0          
C10      C      0.259280000000     0.304400000000     0.947740000000     0          
C11      C      0.177840000000     0.418990000000     0.027200000000     0          
H5       H      0.170400000000     0.426400000000     0.000800000000     0          
C12      C      0.353970000000     0.366400000000     0.103800000000     0          
C13      C      0.338300000000     0.455500000000     0.177500000000     0          
H6       H      0.313100000000     0.465000000000     0.168300000000     0          
C14      C      0.296000000000     0.359900000000     0.059700000000     0          
C15      C      0.230600000000     0.396600000000     0.074000000000     0          
C16      C      0.296150000000     0.522100000000     0.221990000000     0          
H7       H      0.278400000000     0.500900000000     0.215400000000     0          
C17      C      0.281700000000     0.341400000000     0.020500000000     0          
C18      C      0.159060000000     0.403100000000     0.096200000000     0          
H8       H      0.139400000000     0.400200000000     0.116500000000     0          
C19      C      0.293000000000     0.330000000000     0.948600000000     0          
H9       H      0.307700000000     0.335300000000     0.924800000000     0          
C20      C      0.364570000000     0.547960000000     0.230900000000     0          
H10      H      0.392800000000     0.544600000000     0.230100000000     0          
C21      C      0.335000000000     0.400700000000     0.126300000000     0          
C22      C      0.292700000000     0.407400000000     0.115400000000     0          
H11      H      0.277500000000     0.425500000000     0.131300000000     0          
C23      C      0.304500000000     0.347300000000     0.984900000000     0          
H12      H      0.328000000000     0.363300000000     0.985900000000     0          
C24      C      0.355100000000     0.421590000000     0.158000000000     0          
C25      C      0.218800000000     0.411100000000     0.035800000000     0          
H13      H      0.238500000000     0.415700000000     0.015800000000     0          
C26      C      0.334910000000     0.349800000000     0.071600000000     0          
H14      H      0.348900000000     0.330300000000     0.056300000000     0          
C27      C      0.236700000000     0.297900000000     0.981190000000     0          
H15      H      0.213700000000     0.281300000000     0.980000000000     0          
C28      C      0.248200000000     0.316600000000     0.018300000000     0          
H16      H      0.232700000000     0.312000000000     0.041700000000     0          
C29      C      0.198790000000     0.394800000000     0.104310000000     0          
H17      H      0.205900000000     0.387500000000     0.130900000000     0          
O12      O      0.001470000000     0.390450000000     0.087180000000     0          
O13      O      0.220360000000     0.256200000000     0.907910000000     0          
C30      C      0.250270000000     0.283500000000     0.907510000000     0          
C31      C      0.973700000000     0.367500000000     0.069600000000     0          
H18      H      0.968200000000     0.343100000000     0.083100000000     0          
Zr1      Zr     0.803210000000     0.774800000000     0.717790000000     0          
Zr2      Zr     0.704770000000     0.762650000000     0.676430000000     0          
O1       O      0.768520000000     0.737280000000     0.671040000000     0          
O2       O      0.683130000000     0.848550000000     0.740130000000     0          
O3       O      0.909520000000     0.061750000000     0.485870000000     0          
O5       O      0.676110000000     0.827250000000     0.675750000000     0          
O6       O      0.891970000000     0.006830000000     0.521260000000     0          
O7       O      0.815800000000     0.809570000000     0.661220000000     0          
H1       H      0.839900000000     0.819400000000     0.662600000000     0          
H2       H      0.800300000000     0.830500000000     0.660200000000     0          
C1       C      0.843250000000     0.057000000000     0.512100000000     0          
O8       O      0.742270000000     0.792060000000     0.717430000000     0          
C2       C      0.835830000000     0.097870000000     0.509150000000     0          
H3       H      0.856700000000     0.115100000000     0.500200000000     0          
O9       O      0.542460000000     0.022690000000     0.873110000000     0          
C3       C      0.810080000000     0.030580000000     0.518500000000     0          
H4       H      0.813700000000     0.002400000000     0.516300000000     0          
O10      O      0.623650000000     0.701670000000     0.715200000000     0          
C4       C      0.666150000000     0.897770000000     0.692960000000     0          
C5       C      0.884310000000     0.040320000000     0.505790000000     0          
C6       C      0.639300000000     0.024100000000     0.666260000000     0          
C7       C      0.765020000000     0.088800000000     0.527870000000     0          
C8       C      0.675510000000     0.853890000000     0.702720000000     0          
C9       C      0.725440000000     0.105960000000     0.541340000000     0          
C10      C      0.554400000000     0.009280000000     0.802260000000     0          
C11      C      0.668990000000     0.927840000000     0.722800000000     0          
H5       H      0.676400000000     0.920400000000     0.749200000000     0          
C12      C      0.616400000000     0.103970000000     0.646200000000     0          
C13      C      0.705500000000     0.088300000000     0.572500000000     0          
H6       H      0.715000000000     0.063100000000     0.581700000000     0          
C14      C      0.609900000000     0.046000000000     0.690300000000     0          
C15      C      0.646600000000     0.980600000000     0.676000000000     0          
C16      C      0.772100000000     0.046150000000     0.528010000000     0          
H7       H      0.750900000000     0.028400000000     0.534600000000     0          
C17      C      0.591400000000     0.031700000000     0.729500000000     0          
C18      C      0.653100000000     0.909060000000     0.653800000000     0          
H8       H      0.650200000000     0.889400000000     0.633500000000     0          
C19      C      0.580000000000     0.043000000000     0.801400000000     0          
H9       H      0.585300000000     0.057700000000     0.825200000000     0          
C20      C      0.797960000000     0.114570000000     0.519100000000     0          
H10      H      0.794600000000     0.142800000000     0.519900000000     0          
C21      C      0.650700000000     0.085000000000     0.623700000000     0          
C22      C      0.657400000000     0.042700000000     0.634600000000     0          
H11      H      0.675500000000     0.027500000000     0.618700000000     0          
C23      C      0.597300000000     0.054500000000     0.765100000000     0          
H12      H      0.613300000000     0.078000000000     0.764100000000     0          
C24      C      0.671590000000     0.105100000000     0.592000000000     0          
C25      C      0.661100000000     0.968800000000     0.714200000000     0          
H13      H      0.665700000000     0.988500000000     0.734200000000     0          
C26      C      0.599800000000     0.084910000000     0.678400000000     0          
H14      H      0.580300000000     0.098900000000     0.693700000000     0          
C27      C      0.547900000000     0.986700000000     0.768810000000     0          
H15      H      0.531300000000     0.963700000000     0.770000000000     0          
C28      C      0.566600000000     0.998200000000     0.731700000000     0          
H16      H      0.562000000000     0.982700000000     0.708300000000     0          
C29      C      0.644800000000     0.948790000000     0.645690000000     0          
H17      H      0.637500000000     0.955900000000     0.619100000000     0          
O12      O      0.640450000000     0.751470000000     0.662820000000     0          
O13      O      0.506200000000     0.970360000000     0.842090000000     0          
C30      C      0.533500000000     0.000270000000     0.842490000000     0          
C31      C      0.617500000000     0.723700000000     0.680400000000     0          
H18      H      0.593100000000     0.718200000000     0.666900000000     0          
Zr1      Zr     0.975200000000     0.053210000000     0.467790000000     0          
Zr2      Zr     0.987350000000     0.954770000000     0.426430000000     0          
O1       O      0.012720000000     0.018520000000     0.421040000000     0          
O2       O      0.901450000000     0.933130000000     0.490130000000     0          
O3       O      0.688250000000     0.159520000000     0.235870000000     0          
O5       O      0.922750000000     0.926110000000     0.425750000000     0          
O6       O      0.743170000000     0.141970000000     0.271260000000     0          
O7       O      0.940430000000     0.065800000000     0.411220000000     0          
H1       H      0.930600000000     0.089900000000     0.412600000000     0          
H2       H      0.919500000000     0.050300000000     0.410200000000     0          
C1       C      0.693000000000     0.093250000000     0.262100000000     0          
O8       O      0.957940000000     0.992270000000     0.467430000000     0          
C2       C      0.652130000000     0.085830000000     0.259150000000     0          
H3       H      0.634900000000     0.106700000000     0.250200000000     0          
O9       O      0.727310000000     0.792460000000     0.623110000000     0          
C3       C      0.719420000000     0.060080000000     0.268500000000     0          
H4       H      0.747600000000     0.063700000000     0.266300000000     0          
O10      O      0.048330000000     0.873650000000     0.465200000000     0          
C4       C      0.852230000000     0.916150000000     0.442960000000     0          
C5       C      0.709680000000     0.134310000000     0.255790000000     0          
C6       C      0.725900000000     0.889300000000     0.416260000000     0          
C7       C      0.661200000000     0.015020000000     0.277870000000     0          
C8       C      0.896110000000     0.925510000000     0.452720000000     0          
C9       C      0.644040000000     0.975440000000     0.291340000000     0          
C10      C      0.740720000000     0.804400000000     0.552260000000     0          
C11      C      0.822160000000     0.918990000000     0.472800000000     0          
H5       H      0.829600000000     0.926400000000     0.499200000000     0          
C12      C      0.646030000000     0.866400000000     0.396200000000     0          
C13      C      0.661700000000     0.955500000000     0.322500000000     0          
H6       H      0.686900000000     0.965000000000     0.331700000000     0          
C14      C      0.704000000000     0.859900000000     0.440300000000     0          
C15      C      0.769400000000     0.896600000000     0.426000000000     0          
C16      C      0.703850000000     0.022100000000     0.278010000000     0          
H7       H      0.721600000000     0.000900000000     0.284600000000     0          
C17      C      0.718300000000     0.841400000000     0.479500000000     0          
C18      C      0.840940000000     0.903100000000     0.403800000000     0          
H8       H      0.860600000000     0.900200000000     0.383500000000     0          
C19      C      0.707000000000     0.830000000000     0.551400000000     0          
H9       H      0.692300000000     0.835300000000     0.575200000000     0          
C20      C      0.635430000000     0.047960000000     0.269100000000     0          
H10      H      0.607200000000     0.044600000000     0.269900000000     0          
C21      C      0.665000000000     0.900700000000     0.373700000000     0          
C22      C      0.707300000000     0.907400000000     0.384600000000     0          
H11      H      0.722500000000     0.925500000000     0.368700000000     0          
C23      C      0.695500000000     0.847300000000     0.515100000000     0          
H12      H      0.672000000000     0.863300000000     0.514100000000     0          
C24      C      0.644900000000     0.921590000000     0.342000000000     0          
C25      C      0.781200000000     0.911100000000     0.464200000000     0          
H13      H      0.761500000000     0.915700000000     0.484200000000     0          
C26      C      0.665090000000     0.849800000000     0.428400000000     0          
H14      H      0.651100000000     0.830300000000     0.443700000000     0          
C27      C      0.763300000000     0.797900000000     0.518810000000     0          
H15      H      0.786300000000     0.781300000000     0.520000000000     0          
C28      C      0.751800000000     0.816600000000     0.481700000000     0          
H16      H      0.767300000000     0.812000000000     0.458300000000     0          
C29      C      0.801210000000     0.894800000000     0.395690000000     0          
H17      H      0.794100000000     0.887500000000     0.369100000000     0          
O12      O      0.998530000000     0.890450000000     0.412820000000     0          
O13      O      0.779640000000     0.756200000000     0.592090000000     0          
C30      C      0.749730000000     0.783500000000     0.592490000000     0          
C31      C      0.026300000000     0.867500000000     0.430400000000     0          
H18      H      0.031800000000     0.843100000000     0.416900000000     0          
Zr1      Zr     0.524800000000     0.946790000000     0.967790000000     0          
Zr2      Zr     0.512650000000     0.045230000000     0.926430000000     0          
O1       O      0.487280000000     0.981480000000     0.921040000000     0          
O2       O      0.598550000000     0.066870000000     0.990130000000     0          
O3       O      0.811750000000     0.840480000000     0.735870000000     0          
O5       O      0.577250000000     0.073890000000     0.925750000000     0          
O6       O      0.756830000000     0.858030000000     0.771260000000     0          
O7       O      0.559570000000     0.934200000000     0.911220000000     0          
H1       H      0.569400000000     0.910100000000     0.912600000000     0          
H2       H      0.580500000000     0.949700000000     0.910200000000     0          
C1       C      0.807000000000     0.906750000000     0.762100000000     0          
O8       O      0.542060000000     0.007730000000     0.967430000000     0          
C2       C      0.847870000000     0.914170000000     0.759150000000     0          
H3       H      0.865100000000     0.893300000000     0.750200000000     0          
O9       O      0.772690000000     0.207540000000     0.123110000000     0          
C3       C      0.780580000000     0.939920000000     0.768500000000     0          
H4       H      0.752400000000     0.936300000000     0.766300000000     0          
O10      O      0.451670000000     0.126350000000     0.965200000000     0          
C4       C      0.647770000000     0.083850000000     0.942960000000     0          
C5       C      0.790320000000     0.865690000000     0.755790000000     0          
C6       C      0.774100000000     0.110700000000     0.916260000000     0          
C7       C      0.838800000000     0.984980000000     0.777870000000     0          
C8       C      0.603890000000     0.074490000000     0.952720000000     0          
C9       C      0.855960000000     0.024560000000     0.791340000000     0          
C10      C      0.759280000000     0.195600000000     0.052260000000     0          
C11      C      0.677840000000     0.081010000000     0.972800000000     0          
H5       H      0.670400000000     0.073600000000     0.999200000000     0          
C12      C      0.853970000000     0.133600000000     0.896200000000     0          
C13      C      0.838300000000     0.044500000000     0.822500000000     0          
H6       H      0.813100000000     0.035000000000     0.831700000000     0          
C14      C      0.796000000000     0.140100000000     0.940300000000     0          
C15      C      0.730600000000     0.103400000000     0.926000000000     0          
C16      C      0.796150000000     0.977900000000     0.778010000000     0          
H7       H      0.778400000000     0.999100000000     0.784600000000     0          
C17      C      0.781700000000     0.158600000000     0.979500000000     0          
C18      C      0.659060000000     0.096900000000     0.903800000000     0          
H8       H      0.639400000000     0.099800000000     0.883500000000     0          
C19      C      0.793000000000     0.170000000000     0.051400000000     0          
H9       H      0.807700000000     0.164700000000     0.075200000000     0          
C20      C      0.864570000000     0.952040000000     0.769100000000     0          
H10      H      0.892800000000     0.955400000000     0.769900000000     0          
C21      C      0.835000000000     0.099300000000     0.873700000000     0          
C22      C      0.792700000000     0.092600000000     0.884600000000     0          
H11      H      0.777500000000     0.074500000000     0.868700000000     0          
C23      C      0.804500000000     0.152700000000     0.015100000000     0          
H12      H      0.828000000000     0.136700000000     0.014100000000     0          
C24      C      0.855100000000     0.078410000000     0.842000000000     0          
C25      C      0.718800000000     0.088900000000     0.964200000000     0          
H13      H      0.738500000000     0.084300000000     0.984200000000     0          
C26      C      0.834910000000     0.150200000000     0.928400000000     0          
H14      H      0.848900000000     0.169700000000     0.943700000000     0          
C27      C      0.736700000000     0.202100000000     0.018810000000     0          
H15      H      0.713700000000     0.218700000000     0.020000000000     0          
C28      C      0.748200000000     0.183400000000     0.981700000000     0          
H16      H      0.732700000000     0.188000000000     0.958300000000     0          
C29      C      0.698790000000     0.105200000000     0.895690000000     0          
H17      H      0.705900000000     0.112500000000     0.869100000000     0          
O12      O      0.501470000000     0.109550000000     0.912820000000     0          
O13      O      0.720360000000     0.243800000000     0.092090000000     0          
C30      C      0.750270000000     0.216500000000     0.092490000000     0          
C31      C      0.473700000000     0.132500000000     0.930400000000     0          
H18      H      0.468200000000     0.156900000000     0.916900000000     0          


