data_VIKSIU

_audit_creation_method RASPA-1.0
_audit_creation_date 2020-11-2
_audit_author_name 'Rocio Bueno-Perez'

_cell_length_a    32.8707
_cell_length_b    32.8707
_cell_length_c    32.8707
_cell_angle_alpha 90
_cell_angle_beta  90
_cell_angle_gamma 90
_cell_volume      35516.2

_symmetry_cell_setting          triclinic
_symmetry_space_group_name_Hall 'P 1'
_symmetry_space_group_name_H-M  'P 1'
_symmetry_Int_Tables_number     1

_symmetry_equiv_pos_as_xyz 'x,y,z'

loop_
_atom_site_label
_atom_site_type_symbol
_atom_site_fract_x
_atom_site_fract_y
_atom_site_fract_z
_atom_site_charge
Zr1      Zr     0.472620000000     0.030640000000     0.442540000000     0          
Zr2      Zr     0.433040000000     0.018270000000     0.540860000000     0          
O3       O      0.472820000000     0.046730000000     0.503390000000     0          
O4       O      0.425670000000     0.995030000000     0.477920000000     0          
O5       O      0.183840000000     0.180860000000     0.331540000000     0          
O6       O      0.249180000000     0.186440000000     0.353390000000     0          
O7       O      0.991100000000     0.405560000000     0.566820000000     0          
O8       O      0.027520000000     0.387240000000     0.511160000000     0          
O9       O      0.415220000000     0.070060000000     0.434300000000     0          
H10      H      0.398600000000     0.067900000000     0.455000000000     0          
H11      H      0.400800000000     0.060700000000     0.414100000000     0          
O12      O      0.418900000000     0.004400000000     0.605300000000     0          
C13      C      0.017100000000     0.339500000000     0.560100000000     0          
O14      O      0.378800000000     0.046500000000     0.521200000000     0          
C15      C      0.200100000000     0.168900000000     0.400800000000     0          
C16      C      0.009100000000     0.379000000000     0.543800000000     0          
C17      C      0.016400000000     0.332600000000     0.601700000000     0          
H18      H      0.010700000000     0.353400000000     0.620100000000     0          
C19      C      0.210300000000     0.178000000000     0.358800000000     0          
C20      C      0.033400000000     0.268300000000     0.548500000000     0          
H21      H      0.038500000000     0.247600000000     0.530000000000     0          
O22      O      0.349300000000     0.007200000000     0.471700000000     0          
C23      C      0.034100000000     0.260200000000     0.592600000000     0          
C24      C      0.025100000000     0.291800000000     0.615000000000     0          
H25      H      0.024000000000     0.287300000000     0.642900000000     0          
C26      C      0.025000000000     0.306700000000     0.535300000000     0          
H27      H      0.024700000000     0.311000000000     0.507300000000     0          
C28      C      0.231300000000     0.169800000000     0.432600000000     0          
H29      H      0.257600000000     0.177600000000     0.425700000000     0          
C30      C      0.235100000000     0.088800000000     0.533100000000     0          
O31      O      0.469700000000     0.956000000000     0.619400000000     0          
C32      C      0.276500000000     0.048400000000     0.489000000000     0          
H33      H      0.278100000000     0.031000000000     0.466800000000     0          
C34      C      0.097500000000     0.166100000000     0.606600000000     0          
C35      C      0.183800000000     0.148700000000     0.483000000000     0          
C36      C      0.078000000000     0.203000000000     0.588500000000     0          
H37      H      0.087500000000     0.213000000000     0.563800000000     0          
C38      C      0.308300000000     0.053500000000     0.510800000000     0          
C39      C      0.046500000000     0.222100000000     0.607800000000     0          
C40      C      0.160800000000     0.156400000000     0.412100000000     0          
H41      H      0.140200000000     0.154500000000     0.392900000000     0          
C42      C      0.223500000000     0.160100000000     0.470200000000     0          
H43      H      0.244400000000     0.160800000000     0.489300000000     0          
C44      C      0.147700000000     0.113300000000     0.605800000000     0          
C45      C      0.238500000000     0.068000000000     0.497200000000     0          
H46      H      0.217000000000     0.066700000000     0.478900000000     0          
C47      C      0.185700000000     0.095100000000     0.588700000000     0          
H48      H      0.201200000000     0.076400000000     0.603200000000     0          
C49      C      0.197100000000     0.108600000000     0.547400000000     0          
C50      C      0.175600000000     0.133600000000     0.525800000000     0          
C51      C      0.130200000000     0.144000000000     0.582700000000     0          
C52      C      0.141500000000     0.154600000000     0.546900000000     0          
H53      H      0.128200000000     0.175900000000     0.533900000000     0          
C54      C      0.153400000000     0.147000000000     0.452500000000     0          
H55      H      0.127300000000     0.139200000000     0.460000000000     0          
C56      C      0.347500000000     0.032800000000     0.497400000000     0          
C57      C      0.268100000000     0.095100000000     0.557300000000     0          
H58      H      0.265700000000     0.109300000000     0.581700000000     0          
C59      C      0.436100000000     0.982100000000     0.625700000000     0          
H60      H      0.425800000000     0.980800000000     0.652000000000     0          
C61      C      0.306700000000     0.079300000000     0.544600000000     0          
H62      H      0.330300000000     0.086100000000     0.558600000000     0          
O63      O      0.164600000000     0.266100000000     0.545600000000     0          
O64      O      0.184200000000     0.261400000000     0.590600000000     0          
Zr65     Zr     0.027380000000     0.969360000000     0.942540000000     0          
Zr66     Zr     0.066960000000     0.981730000000     0.040860000000     0          
O67      O      0.027180000000     0.953270000000     0.003390000000     0          
O68      O      0.074330000000     0.004970000000     0.977920000000     0          
O69      O      0.316160000000     0.819140000000     0.831540000000     0          
O70      O      0.250820000000     0.813560000000     0.853390000000     0          
O71      O      0.508900000000     0.594440000000     0.066820000000     0          
O72      O      0.472480000000     0.612760000000     0.011160000000     0          
O73      O      0.084780000000     0.929940000000     0.934300000000     0          
H74      H      0.101400000000     0.932100000000     0.955000000000     0          
H75      H      0.099200000000     0.939300000000     0.914100000000     0          
O76      O      0.081100000000     0.995600000000     0.105300000000     0          
C77      C      0.482900000000     0.660500000000     0.060100000000     0          
O78      O      0.121200000000     0.953500000000     0.021200000000     0          
C79      C      0.299900000000     0.831100000000     0.900800000000     0          
C80      C      0.490900000000     0.621000000000     0.043800000000     0          
C81      C      0.483600000000     0.667400000000     0.101700000000     0          
H82      H      0.489300000000     0.646600000000     0.120100000000     0          
C83      C      0.289700000000     0.822000000000     0.858800000000     0          
C84      C      0.466600000000     0.731700000000     0.048500000000     0          
H85      H      0.461500000000     0.752400000000     0.030000000000     0          
O86      O      0.150700000000     0.992800000000     0.971700000000     0          
C87      C      0.465900000000     0.739800000000     0.092600000000     0          
C88      C      0.474900000000     0.708200000000     0.115000000000     0          
H89      H      0.476000000000     0.712700000000     0.142900000000     0          
C90      C      0.475000000000     0.693300000000     0.035300000000     0          
H91      H      0.475300000000     0.689000000000     0.007300000000     0          
C92      C      0.268700000000     0.830200000000     0.932600000000     0          
H93      H      0.242400000000     0.822400000000     0.925700000000     0          
C94      C      0.264900000000     0.911200000000     0.033100000000     0          
O95      O      0.030300000000     0.044000000000     0.119400000000     0          
C96      C      0.223500000000     0.951600000000     0.989000000000     0          
H97      H      0.221900000000     0.969000000000     0.966800000000     0          
C98      C      0.402500000000     0.833900000000     0.106600000000     0          
C99      C      0.316200000000     0.851300000000     0.983000000000     0          
C100     C      0.422000000000     0.797000000000     0.088500000000     0          
H101     H      0.412500000000     0.787000000000     0.063800000000     0          
C102     C      0.191700000000     0.946500000000     0.010800000000     0          
C103     C      0.453500000000     0.777900000000     0.107800000000     0          
C104     C      0.339200000000     0.843600000000     0.912100000000     0          
H105     H      0.359800000000     0.845500000000     0.892900000000     0          
C106     C      0.276500000000     0.839900000000     0.970200000000     0          
H107     H      0.255600000000     0.839200000000     0.989300000000     0          
C108     C      0.352300000000     0.886700000000     0.105800000000     0          
C109     C      0.261500000000     0.932000000000     0.997200000000     0          
H110     H      0.283000000000     0.933300000000     0.978900000000     0          
C111     C      0.314300000000     0.904900000000     0.088700000000     0          
H112     H      0.298800000000     0.923600000000     0.103200000000     0          
C113     C      0.302900000000     0.891400000000     0.047400000000     0          
C114     C      0.324400000000     0.866400000000     0.025800000000     0          
C115     C      0.369800000000     0.856000000000     0.082700000000     0          
C116     C      0.358500000000     0.845400000000     0.046900000000     0          
H117     H      0.371800000000     0.824100000000     0.033900000000     0          
C118     C      0.346600000000     0.853000000000     0.952500000000     0          
H119     H      0.372700000000     0.860800000000     0.960000000000     0          
C120     C      0.152500000000     0.967200000000     0.997400000000     0          
C121     C      0.231900000000     0.904900000000     0.057300000000     0          
H122     H      0.234300000000     0.890700000000     0.081700000000     0          
C123     C      0.063900000000     0.017900000000     0.125700000000     0          
H124     H      0.074200000000     0.019200000000     0.152000000000     0          
C125     C      0.193300000000     0.920700000000     0.044600000000     0          
H126     H      0.169700000000     0.913900000000     0.058600000000     0          
O127     O      0.335400000000     0.733900000000     0.045600000000     0          
O128     O      0.315800000000     0.738600000000     0.090600000000     0          
Zr129    Zr     0.527380000000     0.530640000000     0.057460000000     0          
Zr130    Zr     0.566960000000     0.518270000000     0.959140000000     0          
O131     O      0.527180000000     0.546730000000     0.996610000000     0          
O132     O      0.574330000000     0.495030000000     0.022080000000     0          
O133     O      0.816160000000     0.680860000000     0.168460000000     0          
O134     O      0.750820000000     0.686440000000     0.146610000000     0          
O135     O      0.008900000000     0.905560000000     0.933180000000     0          
O136     O      0.972480000000     0.887240000000     0.988840000000     0          
O137     O      0.584780000000     0.570060000000     0.065700000000     0          
H138     H      0.601400000000     0.567900000000     0.045000000000     0          
H139     H      0.599200000000     0.560700000000     0.085900000000     0          
O140     O      0.581100000000     0.504400000000     0.894700000000     0          
C141     C      0.982900000000     0.839500000000     0.939900000000     0          
O142     O      0.621200000000     0.546500000000     0.978800000000     0          
C143     C      0.799900000000     0.668900000000     0.099200000000     0          
C144     C      0.990900000000     0.879000000000     0.956200000000     0          
C145     C      0.983600000000     0.832600000000     0.898300000000     0          
H146     H      0.989300000000     0.853400000000     0.879900000000     0          
C147     C      0.789700000000     0.678000000000     0.141200000000     0          
C148     C      0.966600000000     0.768300000000     0.951500000000     0          
H149     H      0.961500000000     0.747600000000     0.970000000000     0          
O150     O      0.650700000000     0.507200000000     0.028300000000     0          
C151     C      0.965900000000     0.760200000000     0.907400000000     0          
C152     C      0.974900000000     0.791800000000     0.885000000000     0          
H153     H      0.976000000000     0.787300000000     0.857100000000     0          
C154     C      0.975000000000     0.806700000000     0.964700000000     0          
H155     H      0.975300000000     0.811000000000     0.992700000000     0          
C156     C      0.768700000000     0.669800000000     0.067400000000     0          
H157     H      0.742400000000     0.677600000000     0.074300000000     0          
C158     C      0.764900000000     0.588800000000     0.966900000000     0          
O159     O      0.530300000000     0.456000000000     0.880600000000     0          
C160     C      0.723500000000     0.548400000000     0.011000000000     0          
H161     H      0.721900000000     0.531000000000     0.033200000000     0          
C162     C      0.902500000000     0.666100000000     0.893400000000     0          
C163     C      0.816200000000     0.648700000000     0.017000000000     0          
C164     C      0.922000000000     0.703000000000     0.911500000000     0          
H165     H      0.912500000000     0.713000000000     0.936200000000     0          
C166     C      0.691700000000     0.553500000000     0.989200000000     0          
C167     C      0.953500000000     0.722100000000     0.892200000000     0          
C168     C      0.839200000000     0.656400000000     0.087900000000     0          
H169     H      0.859800000000     0.654500000000     0.107100000000     0          
C170     C      0.776500000000     0.660100000000     0.029800000000     0          
H171     H      0.755600000000     0.660800000000     0.010700000000     0          
C172     C      0.852300000000     0.613300000000     0.894200000000     0          
C173     C      0.761500000000     0.568000000000     0.002800000000     0          
H174     H      0.783000000000     0.566700000000     0.021100000000     0          
C175     C      0.814300000000     0.595100000000     0.911300000000     0          
H176     H      0.798800000000     0.576400000000     0.896800000000     0          
C177     C      0.802900000000     0.608600000000     0.952600000000     0          
C178     C      0.824400000000     0.633600000000     0.974200000000     0          
C179     C      0.869800000000     0.644000000000     0.917300000000     0          
C180     C      0.858500000000     0.654600000000     0.953100000000     0          
H181     H      0.871800000000     0.675900000000     0.966100000000     0          
C182     C      0.846600000000     0.647000000000     0.047500000000     0          
H183     H      0.872700000000     0.639200000000     0.040000000000     0          
C184     C      0.652500000000     0.532800000000     0.002600000000     0          
C185     C      0.731900000000     0.595100000000     0.942700000000     0          
H186     H      0.734300000000     0.609300000000     0.918300000000     0          
C187     C      0.563900000000     0.482100000000     0.874300000000     0          
H188     H      0.574200000000     0.480800000000     0.848000000000     0          
C189     C      0.693300000000     0.579300000000     0.955400000000     0          
H190     H      0.669700000000     0.586100000000     0.941400000000     0          
O191     O      0.835400000000     0.766100000000     0.954400000000     0          
O192     O      0.815800000000     0.761400000000     0.909400000000     0          
Zr193    Zr     0.972620000000     0.469360000000     0.557460000000     0          
Zr194    Zr     0.933040000000     0.481730000000     0.459140000000     0          
O195     O      0.972820000000     0.453270000000     0.496610000000     0          
O196     O      0.925670000000     0.504970000000     0.522080000000     0          
O197     O      0.683840000000     0.319140000000     0.668460000000     0          
O198     O      0.749180000000     0.313560000000     0.646610000000     0          
O199     O      0.491100000000     0.094440000000     0.433180000000     0          
O200     O      0.527520000000     0.112760000000     0.488840000000     0          
O201     O      0.915220000000     0.429940000000     0.565700000000     0          
H202     H      0.898600000000     0.432100000000     0.545000000000     0          
H203     H      0.900800000000     0.439300000000     0.585900000000     0          
O204     O      0.918900000000     0.495600000000     0.394700000000     0          
C205     C      0.517100000000     0.160500000000     0.439900000000     0          
O206     O      0.878800000000     0.453500000000     0.478800000000     0          
C207     C      0.700100000000     0.331100000000     0.599200000000     0          
C208     C      0.509100000000     0.121000000000     0.456200000000     0          
C209     C      0.516400000000     0.167400000000     0.398300000000     0          
H210     H      0.510700000000     0.146600000000     0.379900000000     0          
C211     C      0.710300000000     0.322000000000     0.641200000000     0          
C212     C      0.533400000000     0.231700000000     0.451500000000     0          
H213     H      0.538500000000     0.252400000000     0.470000000000     0          
O214     O      0.849300000000     0.492800000000     0.528300000000     0          
C215     C      0.534100000000     0.239800000000     0.407400000000     0          
C216     C      0.525100000000     0.208200000000     0.385000000000     0          
H217     H      0.524000000000     0.212700000000     0.357100000000     0          
C218     C      0.525000000000     0.193300000000     0.464700000000     0          
H219     H      0.524700000000     0.189000000000     0.492700000000     0          
C220     C      0.731300000000     0.330200000000     0.567400000000     0          
H221     H      0.757600000000     0.322400000000     0.574300000000     0          
C222     C      0.735100000000     0.411200000000     0.466900000000     0          
O223     O      0.969700000000     0.544000000000     0.380600000000     0          
C224     C      0.776500000000     0.451600000000     0.511000000000     0          
H225     H      0.778100000000     0.469000000000     0.533200000000     0          
C226     C      0.597500000000     0.333900000000     0.393400000000     0          
C227     C      0.683800000000     0.351300000000     0.517000000000     0          
C228     C      0.578000000000     0.297000000000     0.411500000000     0          
H229     H      0.587500000000     0.287000000000     0.436200000000     0          
C230     C      0.808300000000     0.446500000000     0.489200000000     0          
C231     C      0.546500000000     0.277900000000     0.392200000000     0          
C232     C      0.660800000000     0.343600000000     0.587900000000     0          
H233     H      0.640200000000     0.345500000000     0.607100000000     0          
C234     C      0.723500000000     0.339900000000     0.529800000000     0          
H235     H      0.744400000000     0.339200000000     0.510700000000     0          
C236     C      0.647700000000     0.386700000000     0.394200000000     0          
C237     C      0.738500000000     0.432000000000     0.502800000000     0          
H238     H      0.717000000000     0.433300000000     0.521100000000     0          
C239     C      0.685700000000     0.404900000000     0.411300000000     0          
H240     H      0.701200000000     0.423600000000     0.396800000000     0          
C241     C      0.697100000000     0.391400000000     0.452600000000     0          
C242     C      0.675600000000     0.366400000000     0.474200000000     0          
C243     C      0.630200000000     0.356000000000     0.417300000000     0          
C244     C      0.641500000000     0.345400000000     0.453100000000     0          
H245     H      0.628200000000     0.324100000000     0.466100000000     0          
C246     C      0.653400000000     0.353000000000     0.547500000000     0          
H247     H      0.627300000000     0.360800000000     0.540000000000     0          
C248     C      0.847500000000     0.467200000000     0.502600000000     0          
C249     C      0.768100000000     0.404900000000     0.442700000000     0          
H250     H      0.765700000000     0.390700000000     0.418300000000     0          
C251     C      0.936100000000     0.517900000000     0.374300000000     0          
H252     H      0.925800000000     0.519200000000     0.348000000000     0          
C253     C      0.806700000000     0.420700000000     0.455400000000     0          
H254     H      0.830300000000     0.413900000000     0.441400000000     0          
O255     O      0.664600000000     0.233900000000     0.454400000000     0          
O256     O      0.684200000000     0.238600000000     0.409400000000     0          
Zr257    Zr     0.442540000000     0.472620000000     0.030640000000     0          
Zr258    Zr     0.540860000000     0.433040000000     0.018270000000     0          
O259     O      0.503390000000     0.472820000000     0.046730000000     0          
O260     O      0.477920000000     0.425670000000     0.995030000000     0          
O261     O      0.331540000000     0.183840000000     0.180860000000     0          
O262     O      0.353390000000     0.249180000000     0.186440000000     0          
O263     O      0.566820000000     0.991100000000     0.405560000000     0          
O264     O      0.511160000000     0.027520000000     0.387240000000     0          
O265     O      0.434300000000     0.415220000000     0.070060000000     0          
H266     H      0.455000000000     0.398600000000     0.067900000000     0          
H267     H      0.414100000000     0.400800000000     0.060700000000     0          
O268     O      0.605300000000     0.418900000000     0.004400000000     0          
C269     C      0.560100000000     0.017100000000     0.339500000000     0          
O270     O      0.521200000000     0.378800000000     0.046500000000     0          
C271     C      0.400800000000     0.200100000000     0.168900000000     0          
C272     C      0.543800000000     0.009100000000     0.379000000000     0          
C273     C      0.601700000000     0.016400000000     0.332600000000     0          
H274     H      0.620100000000     0.010700000000     0.353400000000     0          
C275     C      0.358800000000     0.210300000000     0.178000000000     0          
C276     C      0.548500000000     0.033400000000     0.268300000000     0          
H277     H      0.530000000000     0.038500000000     0.247600000000     0          
O278     O      0.471700000000     0.349300000000     0.007200000000     0          
C279     C      0.592600000000     0.034100000000     0.260200000000     0          
C280     C      0.615000000000     0.025100000000     0.291800000000     0          
H281     H      0.642900000000     0.024000000000     0.287300000000     0          
C282     C      0.535300000000     0.025000000000     0.306700000000     0          
H283     H      0.507300000000     0.024700000000     0.311000000000     0          
C284     C      0.432600000000     0.231300000000     0.169800000000     0          
H285     H      0.425700000000     0.257600000000     0.177600000000     0          
C286     C      0.533100000000     0.235100000000     0.088800000000     0          
O287     O      0.619400000000     0.469700000000     0.956000000000     0          
C288     C      0.489000000000     0.276500000000     0.048400000000     0          
H289     H      0.466800000000     0.278100000000     0.031000000000     0          
C290     C      0.606600000000     0.097500000000     0.166100000000     0          
C291     C      0.483000000000     0.183800000000     0.148700000000     0          
C292     C      0.588500000000     0.078000000000     0.203000000000     0          
H293     H      0.563800000000     0.087500000000     0.213000000000     0          
C294     C      0.510800000000     0.308300000000     0.053500000000     0          
C295     C      0.607800000000     0.046500000000     0.222100000000     0          
C296     C      0.412100000000     0.160800000000     0.156400000000     0          
H297     H      0.392900000000     0.140200000000     0.154500000000     0          
C298     C      0.470200000000     0.223500000000     0.160100000000     0          
H299     H      0.489300000000     0.244400000000     0.160800000000     0          
C300     C      0.605800000000     0.147700000000     0.113300000000     0          
C301     C      0.497200000000     0.238500000000     0.068000000000     0          
H302     H      0.478900000000     0.217000000000     0.066700000000     0          
C303     C      0.588700000000     0.185700000000     0.095100000000     0          
H304     H      0.603200000000     0.201200000000     0.076400000000     0          
C305     C      0.547400000000     0.197100000000     0.108600000000     0          
C306     C      0.525800000000     0.175600000000     0.133600000000     0          
C307     C      0.582700000000     0.130200000000     0.144000000000     0          
C308     C      0.546900000000     0.141500000000     0.154600000000     0          
H309     H      0.533900000000     0.128200000000     0.175900000000     0          
C310     C      0.452500000000     0.153400000000     0.147000000000     0          
H311     H      0.460000000000     0.127300000000     0.139200000000     0          
C312     C      0.497400000000     0.347500000000     0.032800000000     0          
C313     C      0.557300000000     0.268100000000     0.095100000000     0          
H314     H      0.581700000000     0.265700000000     0.109300000000     0          
C315     C      0.625700000000     0.436100000000     0.982100000000     0          
H316     H      0.652000000000     0.425800000000     0.980800000000     0          
C317     C      0.544600000000     0.306700000000     0.079300000000     0          
H318     H      0.558600000000     0.330300000000     0.086100000000     0          
O319     O      0.545600000000     0.164600000000     0.266100000000     0          
O320     O      0.590600000000     0.184200000000     0.261400000000     0          
Zr321    Zr     0.942540000000     0.027380000000     0.969360000000     0          
Zr322    Zr     0.040860000000     0.066960000000     0.981730000000     0          
O323     O      0.003390000000     0.027180000000     0.953270000000     0          
O324     O      0.977920000000     0.074330000000     0.004970000000     0          
O325     O      0.831540000000     0.316160000000     0.819140000000     0          
O326     O      0.853390000000     0.250820000000     0.813560000000     0          
O327     O      0.066820000000     0.508900000000     0.594440000000     0          
O328     O      0.011160000000     0.472480000000     0.612760000000     0          
O329     O      0.934300000000     0.084780000000     0.929940000000     0          
H330     H      0.955000000000     0.101400000000     0.932100000000     0          
H331     H      0.914100000000     0.099200000000     0.939300000000     0          
O332     O      0.105300000000     0.081100000000     0.995600000000     0          
C333     C      0.060100000000     0.482900000000     0.660500000000     0          
O334     O      0.021200000000     0.121200000000     0.953500000000     0          
C335     C      0.900800000000     0.299900000000     0.831100000000     0          
C336     C      0.043800000000     0.490900000000     0.621000000000     0          
C337     C      0.101700000000     0.483600000000     0.667400000000     0          
H338     H      0.120100000000     0.489300000000     0.646600000000     0          
C339     C      0.858800000000     0.289700000000     0.822000000000     0          
C340     C      0.048500000000     0.466600000000     0.731700000000     0          
H341     H      0.030000000000     0.461500000000     0.752400000000     0          
O342     O      0.971700000000     0.150700000000     0.992800000000     0          
C343     C      0.092600000000     0.465900000000     0.739800000000     0          
C344     C      0.115000000000     0.474900000000     0.708200000000     0          
H345     H      0.142900000000     0.476000000000     0.712700000000     0          
C346     C      0.035300000000     0.475000000000     0.693300000000     0          
H347     H      0.007300000000     0.475300000000     0.689000000000     0          
C348     C      0.932600000000     0.268700000000     0.830200000000     0          
H349     H      0.925700000000     0.242400000000     0.822400000000     0          
C350     C      0.033100000000     0.264900000000     0.911200000000     0          
O351     O      0.119400000000     0.030300000000     0.044000000000     0          
C352     C      0.989000000000     0.223500000000     0.951600000000     0          
H353     H      0.966800000000     0.221900000000     0.969000000000     0          
C354     C      0.106600000000     0.402500000000     0.833900000000     0          
C355     C      0.983000000000     0.316200000000     0.851300000000     0          
C356     C      0.088500000000     0.422000000000     0.797000000000     0          
H357     H      0.063800000000     0.412500000000     0.787000000000     0          
C358     C      0.010800000000     0.191700000000     0.946500000000     0          
C359     C      0.107800000000     0.453500000000     0.777900000000     0          
C360     C      0.912100000000     0.339200000000     0.843600000000     0          
H361     H      0.892900000000     0.359800000000     0.845500000000     0          
C362     C      0.970200000000     0.276500000000     0.839900000000     0          
H363     H      0.989300000000     0.255600000000     0.839200000000     0          
C364     C      0.105800000000     0.352300000000     0.886700000000     0          
C365     C      0.997200000000     0.261500000000     0.932000000000     0          
H366     H      0.978900000000     0.283000000000     0.933300000000     0          
C367     C      0.088700000000     0.314300000000     0.904900000000     0          
H368     H      0.103200000000     0.298800000000     0.923600000000     0          
C369     C      0.047400000000     0.302900000000     0.891400000000     0          
C370     C      0.025800000000     0.324400000000     0.866400000000     0          
C371     C      0.082700000000     0.369800000000     0.856000000000     0          
C372     C      0.046900000000     0.358500000000     0.845400000000     0          
H373     H      0.033900000000     0.371800000000     0.824100000000     0          
C374     C      0.952500000000     0.346600000000     0.853000000000     0          
H375     H      0.960000000000     0.372700000000     0.860800000000     0          
C376     C      0.997400000000     0.152500000000     0.967200000000     0          
C377     C      0.057300000000     0.231900000000     0.904900000000     0          
H378     H      0.081700000000     0.234300000000     0.890700000000     0          
C379     C      0.125700000000     0.063900000000     0.017900000000     0          
H380     H      0.152000000000     0.074200000000     0.019200000000     0          
C381     C      0.044600000000     0.193300000000     0.920700000000     0          
H382     H      0.058600000000     0.169700000000     0.913900000000     0          
O383     O      0.045600000000     0.335400000000     0.733900000000     0          
O384     O      0.090600000000     0.315800000000     0.738600000000     0          
Zr385    Zr     0.057460000000     0.527380000000     0.530640000000     0          
Zr386    Zr     0.959140000000     0.566960000000     0.518270000000     0          
O387     O      0.996610000000     0.527180000000     0.546730000000     0          
O388     O      0.022080000000     0.574330000000     0.495030000000     0          
O389     O      0.168460000000     0.816160000000     0.680860000000     0          
O390     O      0.146610000000     0.750820000000     0.686440000000     0          
O391     O      0.933180000000     0.008900000000     0.905560000000     0          
O392     O      0.988840000000     0.972480000000     0.887240000000     0          
O393     O      0.065700000000     0.584780000000     0.570060000000     0          
H394     H      0.045000000000     0.601400000000     0.567900000000     0          
H395     H      0.085900000000     0.599200000000     0.560700000000     0          
O396     O      0.894700000000     0.581100000000     0.504400000000     0          
C397     C      0.939900000000     0.982900000000     0.839500000000     0          
O398     O      0.978800000000     0.621200000000     0.546500000000     0          
C399     C      0.099200000000     0.799900000000     0.668900000000     0          
C400     C      0.956200000000     0.990900000000     0.879000000000     0          
C401     C      0.898300000000     0.983600000000     0.832600000000     0          
H402     H      0.879900000000     0.989300000000     0.853400000000     0          
C403     C      0.141200000000     0.789700000000     0.678000000000     0          
C404     C      0.951500000000     0.966600000000     0.768300000000     0          
H405     H      0.970000000000     0.961500000000     0.747600000000     0          
O406     O      0.028300000000     0.650700000000     0.507200000000     0          
C407     C      0.907400000000     0.965900000000     0.760200000000     0          
C408     C      0.885000000000     0.974900000000     0.791800000000     0          
H409     H      0.857100000000     0.976000000000     0.787300000000     0          
C410     C      0.964700000000     0.975000000000     0.806700000000     0          
H411     H      0.992700000000     0.975300000000     0.811000000000     0          
C412     C      0.067400000000     0.768700000000     0.669800000000     0          
H413     H      0.074300000000     0.742400000000     0.677600000000     0          
C414     C      0.966900000000     0.764900000000     0.588800000000     0          
O415     O      0.880600000000     0.530300000000     0.456000000000     0          
C416     C      0.011000000000     0.723500000000     0.548400000000     0          
H417     H      0.033200000000     0.721900000000     0.531000000000     0          
C418     C      0.893400000000     0.902500000000     0.666100000000     0          
C419     C      0.017000000000     0.816200000000     0.648700000000     0          
C420     C      0.911500000000     0.922000000000     0.703000000000     0          
H421     H      0.936200000000     0.912500000000     0.713000000000     0          
C422     C      0.989200000000     0.691700000000     0.553500000000     0          
C423     C      0.892200000000     0.953500000000     0.722100000000     0          
C424     C      0.087900000000     0.839200000000     0.656400000000     0          
H425     H      0.107100000000     0.859800000000     0.654500000000     0          
C426     C      0.029800000000     0.776500000000     0.660100000000     0          
H427     H      0.010700000000     0.755600000000     0.660800000000     0          
C428     C      0.894200000000     0.852300000000     0.613300000000     0          
C429     C      0.002800000000     0.761500000000     0.568000000000     0          
H430     H      0.021100000000     0.783000000000     0.566700000000     0          
C431     C      0.911300000000     0.814300000000     0.595100000000     0          
H432     H      0.896800000000     0.798800000000     0.576400000000     0          
C433     C      0.952600000000     0.802900000000     0.608600000000     0          
C434     C      0.974200000000     0.824400000000     0.633600000000     0          
C435     C      0.917300000000     0.869800000000     0.644000000000     0          
C436     C      0.953100000000     0.858500000000     0.654600000000     0          
H437     H      0.966100000000     0.871800000000     0.675900000000     0          
C438     C      0.047500000000     0.846600000000     0.647000000000     0          
H439     H      0.040000000000     0.872700000000     0.639200000000     0          
C440     C      0.002600000000     0.652500000000     0.532800000000     0          
C441     C      0.942700000000     0.731900000000     0.595100000000     0          
H442     H      0.918300000000     0.734300000000     0.609300000000     0          
C443     C      0.874300000000     0.563900000000     0.482100000000     0          
H444     H      0.848000000000     0.574200000000     0.480800000000     0          
C445     C      0.955400000000     0.693300000000     0.579300000000     0          
H446     H      0.941400000000     0.669700000000     0.586100000000     0          
O447     O      0.954400000000     0.835400000000     0.766100000000     0          
O448     O      0.909400000000     0.815800000000     0.761400000000     0          
Zr449    Zr     0.557460000000     0.972620000000     0.469360000000     0          
Zr450    Zr     0.459140000000     0.933040000000     0.481730000000     0          
O451     O      0.496610000000     0.972820000000     0.453270000000     0          
O452     O      0.522080000000     0.925670000000     0.504970000000     0          
O453     O      0.668460000000     0.683840000000     0.319140000000     0          
O454     O      0.646610000000     0.749180000000     0.313560000000     0          
O455     O      0.433180000000     0.491100000000     0.094440000000     0          
O456     O      0.488840000000     0.527520000000     0.112760000000     0          
O457     O      0.565700000000     0.915220000000     0.429940000000     0          
H458     H      0.545000000000     0.898600000000     0.432100000000     0          
H459     H      0.585900000000     0.900800000000     0.439300000000     0          
O460     O      0.394700000000     0.918900000000     0.495600000000     0          
C461     C      0.439900000000     0.517100000000     0.160500000000     0          
O462     O      0.478800000000     0.878800000000     0.453500000000     0          
C463     C      0.599200000000     0.700100000000     0.331100000000     0          
C464     C      0.456200000000     0.509100000000     0.121000000000     0          
C465     C      0.398300000000     0.516400000000     0.167400000000     0          
H466     H      0.379900000000     0.510700000000     0.146600000000     0          
C467     C      0.641200000000     0.710300000000     0.322000000000     0          
C468     C      0.451500000000     0.533400000000     0.231700000000     0          
H469     H      0.470000000000     0.538500000000     0.252400000000     0          
O470     O      0.528300000000     0.849300000000     0.492800000000     0          
C471     C      0.407400000000     0.534100000000     0.239800000000     0          
C472     C      0.385000000000     0.525100000000     0.208200000000     0          
H473     H      0.357100000000     0.524000000000     0.212700000000     0          
C474     C      0.464700000000     0.525000000000     0.193300000000     0          
H475     H      0.492700000000     0.524700000000     0.189000000000     0          
C476     C      0.567400000000     0.731300000000     0.330200000000     0          
H477     H      0.574300000000     0.757600000000     0.322400000000     0          
C478     C      0.466900000000     0.735100000000     0.411200000000     0          
O479     O      0.380600000000     0.969700000000     0.544000000000     0          
C480     C      0.511000000000     0.776500000000     0.451600000000     0          
H481     H      0.533200000000     0.778100000000     0.469000000000     0          
C482     C      0.393400000000     0.597500000000     0.333900000000     0          
C483     C      0.517000000000     0.683800000000     0.351300000000     0          
C484     C      0.411500000000     0.578000000000     0.297000000000     0          
H485     H      0.436200000000     0.587500000000     0.287000000000     0          
C486     C      0.489200000000     0.808300000000     0.446500000000     0          
C487     C      0.392200000000     0.546500000000     0.277900000000     0          
C488     C      0.587900000000     0.660800000000     0.343600000000     0          
H489     H      0.607100000000     0.640200000000     0.345500000000     0          
C490     C      0.529800000000     0.723500000000     0.339900000000     0          
H491     H      0.510700000000     0.744400000000     0.339200000000     0          
C492     C      0.394200000000     0.647700000000     0.386700000000     0          
C493     C      0.502800000000     0.738500000000     0.432000000000     0          
H494     H      0.521100000000     0.717000000000     0.433300000000     0          
C495     C      0.411300000000     0.685700000000     0.404900000000     0          
H496     H      0.396800000000     0.701200000000     0.423600000000     0          
C497     C      0.452600000000     0.697100000000     0.391400000000     0          
C498     C      0.474200000000     0.675600000000     0.366400000000     0          
C499     C      0.417300000000     0.630200000000     0.356000000000     0          
C500     C      0.453100000000     0.641500000000     0.345400000000     0          
H501     H      0.466100000000     0.628200000000     0.324100000000     0          
C502     C      0.547500000000     0.653400000000     0.353000000000     0          
H503     H      0.540000000000     0.627300000000     0.360800000000     0          
C504     C      0.502600000000     0.847500000000     0.467200000000     0          
C505     C      0.442700000000     0.768100000000     0.404900000000     0          
H506     H      0.418300000000     0.765700000000     0.390700000000     0          
C507     C      0.374300000000     0.936100000000     0.517900000000     0          
H508     H      0.348000000000     0.925800000000     0.519200000000     0          
C509     C      0.455400000000     0.806700000000     0.420700000000     0          
H510     H      0.441400000000     0.830300000000     0.413900000000     0          
O511     O      0.454400000000     0.664600000000     0.233900000000     0          
O512     O      0.409400000000     0.684200000000     0.238600000000     0          
Zr513    Zr     0.030640000000     0.442540000000     0.472620000000     0          
Zr514    Zr     0.018270000000     0.540860000000     0.433040000000     0          
O515     O      0.046730000000     0.503390000000     0.472820000000     0          
O516     O      0.995030000000     0.477920000000     0.425670000000     0          
O517     O      0.180860000000     0.331540000000     0.183840000000     0          
O518     O      0.186440000000     0.353390000000     0.249180000000     0          
O519     O      0.405560000000     0.566820000000     0.991100000000     0          
O520     O      0.387240000000     0.511160000000     0.027520000000     0          
O521     O      0.070060000000     0.434300000000     0.415220000000     0          
H522     H      0.067900000000     0.455000000000     0.398600000000     0          
H523     H      0.060700000000     0.414100000000     0.400800000000     0          
O524     O      0.004400000000     0.605300000000     0.418900000000     0          
C525     C      0.339500000000     0.560100000000     0.017100000000     0          
O526     O      0.046500000000     0.521200000000     0.378800000000     0          
C527     C      0.168900000000     0.400800000000     0.200100000000     0          
C528     C      0.379000000000     0.543800000000     0.009100000000     0          
C529     C      0.332600000000     0.601700000000     0.016400000000     0          
H530     H      0.353400000000     0.620100000000     0.010700000000     0          
C531     C      0.178000000000     0.358800000000     0.210300000000     0          
C532     C      0.268300000000     0.548500000000     0.033400000000     0          
H533     H      0.247600000000     0.530000000000     0.038500000000     0          
O534     O      0.007200000000     0.471700000000     0.349300000000     0          
C535     C      0.260200000000     0.592600000000     0.034100000000     0          
C536     C      0.291800000000     0.615000000000     0.025100000000     0          
H537     H      0.287300000000     0.642900000000     0.024000000000     0          
C538     C      0.306700000000     0.535300000000     0.025000000000     0          
H539     H      0.311000000000     0.507300000000     0.024700000000     0          
C540     C      0.169800000000     0.432600000000     0.231300000000     0          
H541     H      0.177600000000     0.425700000000     0.257600000000     0          
C542     C      0.088800000000     0.533100000000     0.235100000000     0          
O543     O      0.956000000000     0.619400000000     0.469700000000     0          
C544     C      0.048400000000     0.489000000000     0.276500000000     0          
H545     H      0.031000000000     0.466800000000     0.278100000000     0          
C546     C      0.166100000000     0.606600000000     0.097500000000     0          
C547     C      0.148700000000     0.483000000000     0.183800000000     0          
C548     C      0.203000000000     0.588500000000     0.078000000000     0          
H549     H      0.213000000000     0.563800000000     0.087500000000     0          
C550     C      0.053500000000     0.510800000000     0.308300000000     0          
C551     C      0.222100000000     0.607800000000     0.046500000000     0          
C552     C      0.156400000000     0.412100000000     0.160800000000     0          
H553     H      0.154500000000     0.392900000000     0.140200000000     0          
C554     C      0.160100000000     0.470200000000     0.223500000000     0          
H555     H      0.160800000000     0.489300000000     0.244400000000     0          
C556     C      0.113300000000     0.605800000000     0.147700000000     0          
C557     C      0.068000000000     0.497200000000     0.238500000000     0          
H558     H      0.066700000000     0.478900000000     0.217000000000     0          
C559     C      0.095100000000     0.588700000000     0.185700000000     0          
H560     H      0.076400000000     0.603200000000     0.201200000000     0          
C561     C      0.108600000000     0.547400000000     0.197100000000     0          
C562     C      0.133600000000     0.525800000000     0.175600000000     0          
C563     C      0.144000000000     0.582700000000     0.130200000000     0          
C564     C      0.154600000000     0.546900000000     0.141500000000     0          
H565     H      0.175900000000     0.533900000000     0.128200000000     0          
C566     C      0.147000000000     0.452500000000     0.153400000000     0          
H567     H      0.139200000000     0.460000000000     0.127300000000     0          
C568     C      0.032800000000     0.497400000000     0.347500000000     0          
C569     C      0.095100000000     0.557300000000     0.268100000000     0          
H570     H      0.109300000000     0.581700000000     0.265700000000     0          
C571     C      0.982100000000     0.625700000000     0.436100000000     0          
H572     H      0.980800000000     0.652000000000     0.425800000000     0          
C573     C      0.079300000000     0.544600000000     0.306700000000     0          
H574     H      0.086100000000     0.558600000000     0.330300000000     0          
O575     O      0.266100000000     0.545600000000     0.164600000000     0          
O576     O      0.261400000000     0.590600000000     0.184200000000     0          
Zr577    Zr     0.969360000000     0.942540000000     0.027380000000     0          
Zr578    Zr     0.981730000000     0.040860000000     0.066960000000     0          
O579     O      0.953270000000     0.003390000000     0.027180000000     0          
O580     O      0.004970000000     0.977920000000     0.074330000000     0          
O581     O      0.819140000000     0.831540000000     0.316160000000     0          
O582     O      0.813560000000     0.853390000000     0.250820000000     0          
O583     O      0.594440000000     0.066820000000     0.508900000000     0          
O584     O      0.612760000000     0.011160000000     0.472480000000     0          
O585     O      0.929940000000     0.934300000000     0.084780000000     0          
H586     H      0.932100000000     0.955000000000     0.101400000000     0          
H587     H      0.939300000000     0.914100000000     0.099200000000     0          
O588     O      0.995600000000     0.105300000000     0.081100000000     0          
C589     C      0.660500000000     0.060100000000     0.482900000000     0          
O590     O      0.953500000000     0.021200000000     0.121200000000     0          
C591     C      0.831100000000     0.900800000000     0.299900000000     0          
C592     C      0.621000000000     0.043800000000     0.490900000000     0          
C593     C      0.667400000000     0.101700000000     0.483600000000     0          
H594     H      0.646600000000     0.120100000000     0.489300000000     0          
C595     C      0.822000000000     0.858800000000     0.289700000000     0          
C596     C      0.731700000000     0.048500000000     0.466600000000     0          
H597     H      0.752400000000     0.030000000000     0.461500000000     0          
O598     O      0.992800000000     0.971700000000     0.150700000000     0          
C599     C      0.739800000000     0.092600000000     0.465900000000     0          
C600     C      0.708200000000     0.115000000000     0.474900000000     0          
H601     H      0.712700000000     0.142900000000     0.476000000000     0          
C602     C      0.693300000000     0.035300000000     0.475000000000     0          
H603     H      0.689000000000     0.007300000000     0.475300000000     0          
C604     C      0.830200000000     0.932600000000     0.268700000000     0          
H605     H      0.822400000000     0.925700000000     0.242400000000     0          
C606     C      0.911200000000     0.033100000000     0.264900000000     0          
O607     O      0.044000000000     0.119400000000     0.030300000000     0          
C608     C      0.951600000000     0.989000000000     0.223500000000     0          
H609     H      0.969000000000     0.966800000000     0.221900000000     0          
C610     C      0.833900000000     0.106600000000     0.402500000000     0          
C611     C      0.851300000000     0.983000000000     0.316200000000     0          
C612     C      0.797000000000     0.088500000000     0.422000000000     0          
H613     H      0.787000000000     0.063800000000     0.412500000000     0          
C614     C      0.946500000000     0.010800000000     0.191700000000     0          
C615     C      0.777900000000     0.107800000000     0.453500000000     0          
C616     C      0.843600000000     0.912100000000     0.339200000000     0          
H617     H      0.845500000000     0.892900000000     0.359800000000     0          
C618     C      0.839900000000     0.970200000000     0.276500000000     0          
H619     H      0.839200000000     0.989300000000     0.255600000000     0          
C620     C      0.886700000000     0.105800000000     0.352300000000     0          
C621     C      0.932000000000     0.997200000000     0.261500000000     0          
H622     H      0.933300000000     0.978900000000     0.283000000000     0          
C623     C      0.904900000000     0.088700000000     0.314300000000     0          
H624     H      0.923600000000     0.103200000000     0.298800000000     0          
C625     C      0.891400000000     0.047400000000     0.302900000000     0          
C626     C      0.866400000000     0.025800000000     0.324400000000     0          
C627     C      0.856000000000     0.082700000000     0.369800000000     0          
C628     C      0.845400000000     0.046900000000     0.358500000000     0          
H629     H      0.824100000000     0.033900000000     0.371800000000     0          
C630     C      0.853000000000     0.952500000000     0.346600000000     0          
H631     H      0.860800000000     0.960000000000     0.372700000000     0          
C632     C      0.967200000000     0.997400000000     0.152500000000     0          
C633     C      0.904900000000     0.057300000000     0.231900000000     0          
H634     H      0.890700000000     0.081700000000     0.234300000000     0          
C635     C      0.017900000000     0.125700000000     0.063900000000     0          
H636     H      0.019200000000     0.152000000000     0.074200000000     0          
C637     C      0.920700000000     0.044600000000     0.193300000000     0          
H638     H      0.913900000000     0.058600000000     0.169700000000     0          
O639     O      0.733900000000     0.045600000000     0.335400000000     0          
O640     O      0.738600000000     0.090600000000     0.315800000000     0          
Zr641    Zr     0.530640000000     0.057460000000     0.527380000000     0          
Zr642    Zr     0.518270000000     0.959140000000     0.566960000000     0          
O643     O      0.546730000000     0.996610000000     0.527180000000     0          
O644     O      0.495030000000     0.022080000000     0.574330000000     0          
O645     O      0.680860000000     0.168460000000     0.816160000000     0          
O646     O      0.686440000000     0.146610000000     0.750820000000     0          
O647     O      0.905560000000     0.933180000000     0.008900000000     0          
O648     O      0.887240000000     0.988840000000     0.972480000000     0          
O649     O      0.570060000000     0.065700000000     0.584780000000     0          
H650     H      0.567900000000     0.045000000000     0.601400000000     0          
H651     H      0.560700000000     0.085900000000     0.599200000000     0          
O652     O      0.504400000000     0.894700000000     0.581100000000     0          
C653     C      0.839500000000     0.939900000000     0.982900000000     0          
O654     O      0.546500000000     0.978800000000     0.621200000000     0          
C655     C      0.668900000000     0.099200000000     0.799900000000     0          
C656     C      0.879000000000     0.956200000000     0.990900000000     0          
C657     C      0.832600000000     0.898300000000     0.983600000000     0          
H658     H      0.853400000000     0.879900000000     0.989300000000     0          
C659     C      0.678000000000     0.141200000000     0.789700000000     0          
C660     C      0.768300000000     0.951500000000     0.966600000000     0          
H661     H      0.747600000000     0.970000000000     0.961500000000     0          
O662     O      0.507200000000     0.028300000000     0.650700000000     0          
C663     C      0.760200000000     0.907400000000     0.965900000000     0          
C664     C      0.791800000000     0.885000000000     0.974900000000     0          
H665     H      0.787300000000     0.857100000000     0.976000000000     0          
C666     C      0.806700000000     0.964700000000     0.975000000000     0          
H667     H      0.811000000000     0.992700000000     0.975300000000     0          
C668     C      0.669800000000     0.067400000000     0.768700000000     0          
H669     H      0.677600000000     0.074300000000     0.742400000000     0          
C670     C      0.588800000000     0.966900000000     0.764900000000     0          
O671     O      0.456000000000     0.880600000000     0.530300000000     0          
C672     C      0.548400000000     0.011000000000     0.723500000000     0          
H673     H      0.531000000000     0.033200000000     0.721900000000     0          
C674     C      0.666100000000     0.893400000000     0.902500000000     0          
C675     C      0.648700000000     0.017000000000     0.816200000000     0          
C676     C      0.703000000000     0.911500000000     0.922000000000     0          
H677     H      0.713000000000     0.936200000000     0.912500000000     0          
C678     C      0.553500000000     0.989200000000     0.691700000000     0          
C679     C      0.722100000000     0.892200000000     0.953500000000     0          
C680     C      0.656400000000     0.087900000000     0.839200000000     0          
H681     H      0.654500000000     0.107100000000     0.859800000000     0          
C682     C      0.660100000000     0.029800000000     0.776500000000     0          
H683     H      0.660800000000     0.010700000000     0.755600000000     0          
C684     C      0.613300000000     0.894200000000     0.852300000000     0          
C685     C      0.568000000000     0.002800000000     0.761500000000     0          
H686     H      0.566700000000     0.021100000000     0.783000000000     0          
C687     C      0.595100000000     0.911300000000     0.814300000000     0          
H688     H      0.576400000000     0.896800000000     0.798800000000     0          
C689     C      0.608600000000     0.952600000000     0.802900000000     0          
C690     C      0.633600000000     0.974200000000     0.824400000000     0          
C691     C      0.644000000000     0.917300000000     0.869800000000     0          
C692     C      0.654600000000     0.953100000000     0.858500000000     0          
H693     H      0.675900000000     0.966100000000     0.871800000000     0          
C694     C      0.647000000000     0.047500000000     0.846600000000     0          
H695     H      0.639200000000     0.040000000000     0.872700000000     0          
C696     C      0.532800000000     0.002600000000     0.652500000000     0          
C697     C      0.595100000000     0.942700000000     0.731900000000     0          
H698     H      0.609300000000     0.918300000000     0.734300000000     0          
C699     C      0.482100000000     0.874300000000     0.563900000000     0          
H700     H      0.480800000000     0.848000000000     0.574200000000     0          
C701     C      0.579300000000     0.955400000000     0.693300000000     0          
H702     H      0.586100000000     0.941400000000     0.669700000000     0          
O703     O      0.766100000000     0.954400000000     0.835400000000     0          
O704     O      0.761400000000     0.909400000000     0.815800000000     0          
Zr705    Zr     0.469360000000     0.557460000000     0.972620000000     0          
Zr706    Zr     0.481730000000     0.459140000000     0.933040000000     0          
O707     O      0.453270000000     0.496610000000     0.972820000000     0          
O708     O      0.504970000000     0.522080000000     0.925670000000     0          
O709     O      0.319140000000     0.668460000000     0.683840000000     0          
O710     O      0.313560000000     0.646610000000     0.749180000000     0          
O711     O      0.094440000000     0.433180000000     0.491100000000     0          
O712     O      0.112760000000     0.488840000000     0.527520000000     0          
O713     O      0.429940000000     0.565700000000     0.915220000000     0          
H714     H      0.432100000000     0.545000000000     0.898600000000     0          
H715     H      0.439300000000     0.585900000000     0.900800000000     0          
O716     O      0.495600000000     0.394700000000     0.918900000000     0          
C717     C      0.160500000000     0.439900000000     0.517100000000     0          
O718     O      0.453500000000     0.478800000000     0.878800000000     0          
C719     C      0.331100000000     0.599200000000     0.700100000000     0          
C720     C      0.121000000000     0.456200000000     0.509100000000     0          
C721     C      0.167400000000     0.398300000000     0.516400000000     0          
H722     H      0.146600000000     0.379900000000     0.510700000000     0          
C723     C      0.322000000000     0.641200000000     0.710300000000     0          
C724     C      0.231700000000     0.451500000000     0.533400000000     0          
H725     H      0.252400000000     0.470000000000     0.538500000000     0          
O726     O      0.492800000000     0.528300000000     0.849300000000     0          
C727     C      0.239800000000     0.407400000000     0.534100000000     0          
C728     C      0.208200000000     0.385000000000     0.525100000000     0          
H729     H      0.212700000000     0.357100000000     0.524000000000     0          
C730     C      0.193300000000     0.464700000000     0.525000000000     0          
H731     H      0.189000000000     0.492700000000     0.524700000000     0          
C732     C      0.330200000000     0.567400000000     0.731300000000     0          
H733     H      0.322400000000     0.574300000000     0.757600000000     0          
C734     C      0.411200000000     0.466900000000     0.735100000000     0          
O735     O      0.544000000000     0.380600000000     0.969700000000     0          
C736     C      0.451600000000     0.511000000000     0.776500000000     0          
H737     H      0.469000000000     0.533200000000     0.778100000000     0          
C738     C      0.333900000000     0.393400000000     0.597500000000     0          
C739     C      0.351300000000     0.517000000000     0.683800000000     0          
C740     C      0.297000000000     0.411500000000     0.578000000000     0          
H741     H      0.287000000000     0.436200000000     0.587500000000     0          
C742     C      0.446500000000     0.489200000000     0.808300000000     0          
C743     C      0.277900000000     0.392200000000     0.546500000000     0          
C744     C      0.343600000000     0.587900000000     0.660800000000     0          
H745     H      0.345500000000     0.607100000000     0.640200000000     0          
C746     C      0.339900000000     0.529800000000     0.723500000000     0          
H747     H      0.339200000000     0.510700000000     0.744400000000     0          
C748     C      0.386700000000     0.394200000000     0.647700000000     0          
C749     C      0.432000000000     0.502800000000     0.738500000000     0          
H750     H      0.433300000000     0.521100000000     0.717000000000     0          
C751     C      0.404900000000     0.411300000000     0.685700000000     0          
H752     H      0.423600000000     0.396800000000     0.701200000000     0          
C753     C      0.391400000000     0.452600000000     0.697100000000     0          
C754     C      0.366400000000     0.474200000000     0.675600000000     0          
C755     C      0.356000000000     0.417300000000     0.630200000000     0          
C756     C      0.345400000000     0.453100000000     0.641500000000     0          
H757     H      0.324100000000     0.466100000000     0.628200000000     0          
C758     C      0.353000000000     0.547500000000     0.653400000000     0          
H759     H      0.360800000000     0.540000000000     0.627300000000     0          
C760     C      0.467200000000     0.502600000000     0.847500000000     0          
C761     C      0.404900000000     0.442700000000     0.768100000000     0          
H762     H      0.390700000000     0.418300000000     0.765700000000     0          
C763     C      0.517900000000     0.374300000000     0.936100000000     0          
H764     H      0.519200000000     0.348000000000     0.925800000000     0          
C765     C      0.420700000000     0.455400000000     0.806700000000     0          
H766     H      0.413900000000     0.441400000000     0.830300000000     0          
O767     O      0.233900000000     0.454400000000     0.664600000000     0          
O768     O      0.238600000000     0.409400000000     0.684200000000     0          
Zr769    Zr     0.280640000000     0.222620000000     0.307460000000     0          
Zr770    Zr     0.268270000000     0.183040000000     0.209140000000     0          
O771     O      0.296730000000     0.222820000000     0.246610000000     0          
O772     O      0.245030000000     0.175670000000     0.272080000000     0          
O773     O      0.430860000000     0.933840000000     0.418460000000     0          
O774     O      0.436440000000     0.999180000000     0.396610000000     0          
O775     O      0.655560000000     0.741100000000     0.183180000000     0          
O776     O      0.637240000000     0.777520000000     0.238840000000     0          
O777     O      0.320060000000     0.165220000000     0.315700000000     0          
H778     H      0.317900000000     0.148600000000     0.295000000000     0          
H779     H      0.310700000000     0.150800000000     0.335900000000     0          
O780     O      0.254400000000     0.168900000000     0.144700000000     0          
C781     C      0.589500000000     0.767100000000     0.189900000000     0          
O782     O      0.296500000000     0.128800000000     0.228800000000     0          
C783     C      0.418900000000     0.950100000000     0.349200000000     0          
C784     C      0.629000000000     0.759100000000     0.206200000000     0          
C785     C      0.582600000000     0.766400000000     0.148300000000     0          
H786     H      0.603400000000     0.760700000000     0.129900000000     0          
C787     C      0.428000000000     0.960300000000     0.391200000000     0          
C788     C      0.518300000000     0.783400000000     0.201500000000     0          
H789     H      0.497600000000     0.788500000000     0.220000000000     0          
O790     O      0.257200000000     0.099300000000     0.278300000000     0          
C791     C      0.510200000000     0.784100000000     0.157400000000     0          
C792     C      0.541800000000     0.775100000000     0.135000000000     0          
H793     H      0.537300000000     0.774000000000     0.107100000000     0          
C794     C      0.556700000000     0.775000000000     0.214700000000     0          
H795     H      0.561000000000     0.774700000000     0.242700000000     0          
C796     C      0.419800000000     0.981300000000     0.317400000000     0          
H797     H      0.427600000000     0.007600000000     0.324300000000     0          
C798     C      0.338800000000     0.985100000000     0.216900000000     0          
O799     O      0.206000000000     0.219700000000     0.130600000000     0          
C800     C      0.298400000000     0.026500000000     0.261000000000     0          
H801     H      0.281000000000     0.028100000000     0.283200000000     0          
C802     C      0.416100000000     0.847500000000     0.143400000000     0          
C803     C      0.398700000000     0.933800000000     0.267000000000     0          
C804     C      0.453000000000     0.828000000000     0.161500000000     0          
H805     H      0.463000000000     0.837500000000     0.186200000000     0          
C806     C      0.303500000000     0.058300000000     0.239200000000     0          
C807     C      0.472100000000     0.796500000000     0.142200000000     0          
C808     C      0.406400000000     0.910800000000     0.337900000000     0          
H809     H      0.404500000000     0.890200000000     0.357100000000     0          
C810     C      0.410100000000     0.973500000000     0.279800000000     0          
H811     H      0.410800000000     0.994400000000     0.260700000000     0          
C812     C      0.363300000000     0.897700000000     0.144200000000     0          
C813     C      0.318000000000     0.988500000000     0.252800000000     0          
H814     H      0.316700000000     0.967000000000     0.271100000000     0          
C815     C      0.345100000000     0.935700000000     0.161300000000     0          
H816     H      0.326400000000     0.951200000000     0.146800000000     0          
C817     C      0.358600000000     0.947100000000     0.202600000000     0          
C818     C      0.383600000000     0.925600000000     0.224200000000     0          
C819     C      0.394000000000     0.880200000000     0.167300000000     0          
C820     C      0.404600000000     0.891500000000     0.203100000000     0          
H821     H      0.425900000000     0.878200000000     0.216100000000     0          
C822     C      0.397000000000     0.903400000000     0.297500000000     0          
H823     H      0.389200000000     0.877300000000     0.290000000000     0          
C824     C      0.282800000000     0.097500000000     0.252600000000     0          
C825     C      0.345100000000     0.018100000000     0.192700000000     0          
H826     H      0.359300000000     0.015700000000     0.168300000000     0          
C827     C      0.232100000000     0.186100000000     0.124300000000     0          
H828     H      0.230800000000     0.175800000000     0.098000000000     0          
C829     C      0.329300000000     0.056700000000     0.205400000000     0          
H830     H      0.336100000000     0.080300000000     0.191400000000     0          
O831     O      0.516100000000     0.914600000000     0.204400000000     0          
O832     O      0.511400000000     0.934200000000     0.159400000000     0          
Zr833    Zr     0.219360000000     0.777380000000     0.807460000000     0          
Zr834    Zr     0.231730000000     0.816960000000     0.709140000000     0          
O835     O      0.203270000000     0.777180000000     0.746610000000     0          
O836     O      0.254970000000     0.824330000000     0.772080000000     0          
O837     O      0.069140000000     0.066160000000     0.918460000000     0          
O838     O      0.063560000000     0.000820000000     0.896610000000     0          
O839     O      0.844440000000     0.258900000000     0.683180000000     0          
O840     O      0.862760000000     0.222480000000     0.738840000000     0          
O841     O      0.179940000000     0.834780000000     0.815700000000     0          
H842     H      0.182100000000     0.851400000000     0.795000000000     0          
H843     H      0.189300000000     0.849200000000     0.835900000000     0          
O844     O      0.245600000000     0.831100000000     0.644700000000     0          
C845     C      0.910500000000     0.232900000000     0.689900000000     0          
O846     O      0.203500000000     0.871200000000     0.728800000000     0          
C847     C      0.081100000000     0.049900000000     0.849200000000     0          
C848     C      0.871000000000     0.240900000000     0.706200000000     0          
C849     C      0.917400000000     0.233600000000     0.648300000000     0          
H850     H      0.896600000000     0.239300000000     0.629900000000     0          
C851     C      0.072000000000     0.039700000000     0.891200000000     0          
C852     C      0.981700000000     0.216600000000     0.701500000000     0          
H853     H      0.002400000000     0.211500000000     0.720000000000     0          
O854     O      0.242800000000     0.900700000000     0.778300000000     0          
C855     C      0.989800000000     0.215900000000     0.657400000000     0          
C856     C      0.958200000000     0.224900000000     0.635000000000     0          
H857     H      0.962700000000     0.226000000000     0.607100000000     0          
C858     C      0.943300000000     0.225000000000     0.714700000000     0          
H859     H      0.939000000000     0.225300000000     0.742700000000     0          
C860     C      0.080200000000     0.018700000000     0.817400000000     0          
H861     H      0.072400000000     0.992400000000     0.824300000000     0          
C862     C      0.161200000000     0.014900000000     0.716900000000     0          
O863     O      0.294000000000     0.780300000000     0.630600000000     0          
C864     C      0.201600000000     0.973500000000     0.761000000000     0          
H865     H      0.219000000000     0.971900000000     0.783200000000     0          
C866     C      0.083900000000     0.152500000000     0.643400000000     0          
C867     C      0.101300000000     0.066200000000     0.767000000000     0          
C868     C      0.047000000000     0.172000000000     0.661500000000     0          
H869     H      0.037000000000     0.162500000000     0.686200000000     0          
C870     C      0.196500000000     0.941700000000     0.739200000000     0          
C871     C      0.027900000000     0.203500000000     0.642200000000     0          
C872     C      0.093600000000     0.089200000000     0.837900000000     0          
H873     H      0.095500000000     0.109800000000     0.857100000000     0          
C874     C      0.089900000000     0.026500000000     0.779800000000     0          
H875     H      0.089200000000     0.005600000000     0.760700000000     0          
C876     C      0.136700000000     0.102300000000     0.644200000000     0          
C877     C      0.182000000000     0.011500000000     0.752800000000     0          
H878     H      0.183300000000     0.033000000000     0.771100000000     0          
C879     C      0.154900000000     0.064300000000     0.661300000000     0          
H880     H      0.173600000000     0.048800000000     0.646800000000     0          
C881     C      0.141400000000     0.052900000000     0.702600000000     0          
C882     C      0.116400000000     0.074400000000     0.724200000000     0          
C883     C      0.106000000000     0.119800000000     0.667300000000     0          
C884     C      0.095400000000     0.108500000000     0.703100000000     0          
H885     H      0.074100000000     0.121800000000     0.716100000000     0          
C886     C      0.103000000000     0.096600000000     0.797500000000     0          
H887     H      0.110800000000     0.122700000000     0.790000000000     0          
C888     C      0.217200000000     0.902500000000     0.752600000000     0          
C889     C      0.154900000000     0.981900000000     0.692700000000     0          
H890     H      0.140700000000     0.984300000000     0.668300000000     0          
C891     C      0.267900000000     0.813900000000     0.624300000000     0          
H892     H      0.269200000000     0.824200000000     0.598000000000     0          
C893     C      0.170700000000     0.943300000000     0.705400000000     0          
H894     H      0.163900000000     0.919700000000     0.691400000000     0          
O895     O      0.983900000000     0.085400000000     0.704400000000     0          
O896     O      0.988600000000     0.065800000000     0.659400000000     0          
Zr897    Zr     0.780640000000     0.277380000000     0.692540000000     0          
Zr898    Zr     0.768270000000     0.316960000000     0.790860000000     0          
O899     O      0.796730000000     0.277180000000     0.753390000000     0          
O900     O      0.745030000000     0.324330000000     0.727920000000     0          
O901     O      0.930860000000     0.566160000000     0.581540000000     0          
O902     O      0.936440000000     0.500820000000     0.603390000000     0          
O903     O      0.155560000000     0.758900000000     0.816820000000     0          
O904     O      0.137240000000     0.722480000000     0.761160000000     0          
O905     O      0.820060000000     0.334780000000     0.684300000000     0          
H906     H      0.817900000000     0.351400000000     0.705000000000     0          
H907     H      0.810700000000     0.349200000000     0.664100000000     0          
O908     O      0.754400000000     0.331100000000     0.855300000000     0          
C909     C      0.089500000000     0.732900000000     0.810100000000     0          
O910     O      0.796500000000     0.371200000000     0.771200000000     0          
C911     C      0.918900000000     0.549900000000     0.650800000000     0          
C912     C      0.129000000000     0.740900000000     0.793800000000     0          
C913     C      0.082600000000     0.733600000000     0.851700000000     0          
H914     H      0.103400000000     0.739300000000     0.870100000000     0          
C915     C      0.928000000000     0.539700000000     0.608800000000     0          
C916     C      0.018300000000     0.716600000000     0.798500000000     0          
H917     H      0.997600000000     0.711500000000     0.780000000000     0          
O918     O      0.757200000000     0.400700000000     0.721700000000     0          
C919     C      0.010200000000     0.715900000000     0.842600000000     0          
C920     C      0.041800000000     0.724900000000     0.865000000000     0          
H921     H      0.037300000000     0.726000000000     0.892900000000     0          
C922     C      0.056700000000     0.725000000000     0.785300000000     0          
H923     H      0.061000000000     0.725300000000     0.757300000000     0          
C924     C      0.919800000000     0.518700000000     0.682600000000     0          
H925     H      0.927600000000     0.492400000000     0.675700000000     0          
C926     C      0.838800000000     0.514900000000     0.783100000000     0          
O927     O      0.706000000000     0.280300000000     0.869400000000     0          
C928     C      0.798400000000     0.473500000000     0.739000000000     0          
H929     H      0.781000000000     0.471900000000     0.716800000000     0          
C930     C      0.916100000000     0.652500000000     0.856600000000     0          
C931     C      0.898700000000     0.566200000000     0.733000000000     0          
C932     C      0.953000000000     0.672000000000     0.838500000000     0          
H933     H      0.963000000000     0.662500000000     0.813800000000     0          
C934     C      0.803500000000     0.441700000000     0.760800000000     0          
C935     C      0.972100000000     0.703500000000     0.857800000000     0          
C936     C      0.906400000000     0.589200000000     0.662100000000     0          
H937     H      0.904500000000     0.609800000000     0.642900000000     0          
C938     C      0.910100000000     0.526500000000     0.720200000000     0          
H939     H      0.910800000000     0.505600000000     0.739300000000     0          
C940     C      0.863300000000     0.602300000000     0.855800000000     0          
C941     C      0.818000000000     0.511500000000     0.747200000000     0          
H942     H      0.816700000000     0.533000000000     0.728900000000     0          
C943     C      0.845100000000     0.564300000000     0.838700000000     0          
H944     H      0.826400000000     0.548800000000     0.853200000000     0          
C945     C      0.858600000000     0.552900000000     0.797400000000     0          
C946     C      0.883600000000     0.574400000000     0.775800000000     0          
C947     C      0.894000000000     0.619800000000     0.832700000000     0          
C948     C      0.904600000000     0.608500000000     0.796900000000     0          
H949     H      0.925900000000     0.621800000000     0.783900000000     0          
C950     C      0.897000000000     0.596600000000     0.702500000000     0          
H951     H      0.889200000000     0.622700000000     0.710000000000     0          
C952     C      0.782800000000     0.402500000000     0.747400000000     0          
C953     C      0.845100000000     0.481900000000     0.807300000000     0          
H954     H      0.859300000000     0.484300000000     0.831700000000     0          
C955     C      0.732100000000     0.313900000000     0.875700000000     0          
H956     H      0.730800000000     0.324200000000     0.902000000000     0          
C957     C      0.829300000000     0.443300000000     0.794600000000     0          
H958     H      0.836100000000     0.419700000000     0.808600000000     0          
O959     O      0.016100000000     0.585400000000     0.795600000000     0          
O960     O      0.011400000000     0.565800000000     0.840600000000     0          
Zr961    Zr     0.719360000000     0.722620000000     0.192540000000     0          
Zr962    Zr     0.731730000000     0.683040000000     0.290860000000     0          
O963     O      0.703270000000     0.722820000000     0.253390000000     0          
O964     O      0.754970000000     0.675670000000     0.227920000000     0          
O965     O      0.569140000000     0.433840000000     0.081540000000     0          
O966     O      0.563560000000     0.499180000000     0.103390000000     0          
O967     O      0.344440000000     0.241100000000     0.316820000000     0          
O968     O      0.362760000000     0.277520000000     0.261160000000     0          
O969     O      0.679940000000     0.665220000000     0.184300000000     0          
H970     H      0.682100000000     0.648600000000     0.205000000000     0          
H971     H      0.689300000000     0.650800000000     0.164100000000     0          
O972     O      0.745600000000     0.668900000000     0.355300000000     0          
C973     C      0.410500000000     0.267100000000     0.310100000000     0          
O974     O      0.703500000000     0.628800000000     0.271200000000     0          
C975     C      0.581100000000     0.450100000000     0.150800000000     0          
C976     C      0.371000000000     0.259100000000     0.293800000000     0          
C977     C      0.417400000000     0.266400000000     0.351700000000     0          
H978     H      0.396600000000     0.260700000000     0.370100000000     0          
C979     C      0.572000000000     0.460300000000     0.108800000000     0          
C980     C      0.481700000000     0.283400000000     0.298500000000     0          
H981     H      0.502400000000     0.288500000000     0.280000000000     0          
O982     O      0.742800000000     0.599300000000     0.221700000000     0          
C983     C      0.489800000000     0.284100000000     0.342600000000     0          
C984     C      0.458200000000     0.275100000000     0.365000000000     0          
H985     H      0.462700000000     0.274000000000     0.392900000000     0          
C986     C      0.443300000000     0.275000000000     0.285300000000     0          
H987     H      0.439000000000     0.274700000000     0.257300000000     0          
C988     C      0.580200000000     0.481300000000     0.182600000000     0          
H989     H      0.572400000000     0.507600000000     0.175700000000     0          
C990     C      0.661200000000     0.485100000000     0.283100000000     0          
O991     O      0.794000000000     0.719700000000     0.369400000000     0          
C992     C      0.701600000000     0.526500000000     0.239000000000     0          
H993     H      0.719000000000     0.528100000000     0.216800000000     0          
C994     C      0.583900000000     0.347500000000     0.356600000000     0          
C995     C      0.601300000000     0.433800000000     0.233000000000     0          
C996     C      0.547000000000     0.328000000000     0.338500000000     0          
H997     H      0.537000000000     0.337500000000     0.313800000000     0          
C998     C      0.696500000000     0.558300000000     0.260800000000     0          
C999     C      0.527900000000     0.296500000000     0.357800000000     0          
C1000    C      0.593600000000     0.410800000000     0.162100000000     0          
H1001    H      0.595500000000     0.390200000000     0.142900000000     0          
C1002    C      0.589900000000     0.473500000000     0.220200000000     0          
H1003    H      0.589200000000     0.494400000000     0.239300000000     0          
C1004    C      0.636700000000     0.397700000000     0.355800000000     0          
C1005    C      0.682000000000     0.488500000000     0.247200000000     0          
H1006    H      0.683300000000     0.467000000000     0.228900000000     0          
C1007    C      0.654900000000     0.435700000000     0.338700000000     0          
H1008    H      0.673600000000     0.451200000000     0.353200000000     0          
C1009    C      0.641400000000     0.447100000000     0.297400000000     0          
C1010    C      0.616400000000     0.425600000000     0.275800000000     0          
C1011    C      0.606000000000     0.380200000000     0.332700000000     0          
C1012    C      0.595400000000     0.391500000000     0.296900000000     0          
H1013    H      0.574100000000     0.378200000000     0.283900000000     0          
C1014    C      0.603000000000     0.403400000000     0.202500000000     0          
H1015    H      0.610800000000     0.377300000000     0.210000000000     0          
C1016    C      0.717200000000     0.597500000000     0.247400000000     0          
C1017    C      0.654900000000     0.518100000000     0.307300000000     0          
H1018    H      0.640700000000     0.515700000000     0.331700000000     0          
C1019    C      0.767900000000     0.686100000000     0.375700000000     0          
H1020    H      0.769200000000     0.675800000000     0.402000000000     0          
C1021    C      0.670700000000     0.556700000000     0.294600000000     0          
H1022    H      0.663900000000     0.580300000000     0.308600000000     0          
O1023    O      0.483900000000     0.414600000000     0.295600000000     0          
O1024    O      0.488600000000     0.434200000000     0.340600000000     0          
Zr1025   Zr     0.722620000000     0.192540000000     0.719360000000     0          
Zr1026   Zr     0.683040000000     0.290860000000     0.731730000000     0          
O1027    O      0.722820000000     0.253390000000     0.703270000000     0          
O1028    O      0.675670000000     0.227920000000     0.754970000000     0          
O1029    O      0.433840000000     0.081540000000     0.569140000000     0          
O1030    O      0.499180000000     0.103390000000     0.563560000000     0          
O1031    O      0.241100000000     0.316820000000     0.344440000000     0          
O1032    O      0.277520000000     0.261160000000     0.362760000000     0          
O1033    O      0.665220000000     0.184300000000     0.679940000000     0          
H1034    H      0.648600000000     0.205000000000     0.682100000000     0          
H1035    H      0.650800000000     0.164100000000     0.689300000000     0          
O1036    O      0.668900000000     0.355300000000     0.745600000000     0          
C1037    C      0.267100000000     0.310100000000     0.410500000000     0          
O1038    O      0.628800000000     0.271200000000     0.703500000000     0          
C1039    C      0.450100000000     0.150800000000     0.581100000000     0          
C1040    C      0.259100000000     0.293800000000     0.371000000000     0          
C1041    C      0.266400000000     0.351700000000     0.417400000000     0          
H1042    H      0.260700000000     0.370100000000     0.396600000000     0          
C1043    C      0.460300000000     0.108800000000     0.572000000000     0          
C1044    C      0.283400000000     0.298500000000     0.481700000000     0          
H1045    H      0.288500000000     0.280000000000     0.502400000000     0          
O1046    O      0.599300000000     0.221700000000     0.742800000000     0          
C1047    C      0.284100000000     0.342600000000     0.489800000000     0          
C1048    C      0.275100000000     0.365000000000     0.458200000000     0          
H1049    H      0.274000000000     0.392900000000     0.462700000000     0          
C1050    C      0.275000000000     0.285300000000     0.443300000000     0          
H1051    H      0.274700000000     0.257300000000     0.439000000000     0          
C1052    C      0.481300000000     0.182600000000     0.580200000000     0          
H1053    H      0.507600000000     0.175700000000     0.572400000000     0          
C1054    C      0.485100000000     0.283100000000     0.661200000000     0          
O1055    O      0.719700000000     0.369400000000     0.794000000000     0          
C1056    C      0.526500000000     0.239000000000     0.701600000000     0          
H1057    H      0.528100000000     0.216800000000     0.719000000000     0          
C1058    C      0.347500000000     0.356600000000     0.583900000000     0          
C1059    C      0.433800000000     0.233000000000     0.601300000000     0          
C1060    C      0.328000000000     0.338500000000     0.547000000000     0          
H1061    H      0.337500000000     0.313800000000     0.537000000000     0          
C1062    C      0.558300000000     0.260800000000     0.696500000000     0          
C1063    C      0.296500000000     0.357800000000     0.527900000000     0          
C1064    C      0.410800000000     0.162100000000     0.593600000000     0          
H1065    H      0.390200000000     0.142900000000     0.595500000000     0          
C1066    C      0.473500000000     0.220200000000     0.589900000000     0          
H1067    H      0.494400000000     0.239300000000     0.589200000000     0          
C1068    C      0.397700000000     0.355800000000     0.636700000000     0          
C1069    C      0.488500000000     0.247200000000     0.682000000000     0          
H1070    H      0.467000000000     0.228900000000     0.683300000000     0          
C1071    C      0.435700000000     0.338700000000     0.654900000000     0          
H1072    H      0.451200000000     0.353200000000     0.673600000000     0          
C1073    C      0.447100000000     0.297400000000     0.641400000000     0          
C1074    C      0.425600000000     0.275800000000     0.616400000000     0          
C1075    C      0.380200000000     0.332700000000     0.606000000000     0          
C1076    C      0.391500000000     0.296900000000     0.595400000000     0          
H1077    H      0.378200000000     0.283900000000     0.574100000000     0          
C1078    C      0.403400000000     0.202500000000     0.603000000000     0          
H1079    H      0.377300000000     0.210000000000     0.610800000000     0          
C1080    C      0.597500000000     0.247400000000     0.717200000000     0          
C1081    C      0.518100000000     0.307300000000     0.654900000000     0          
H1082    H      0.515700000000     0.331700000000     0.640700000000     0          
C1083    C      0.686100000000     0.375700000000     0.767900000000     0          
H1084    H      0.675800000000     0.402000000000     0.769200000000     0          
C1085    C      0.556700000000     0.294600000000     0.670700000000     0          
H1086    H      0.580300000000     0.308600000000     0.663900000000     0          
O1087    O      0.414600000000     0.295600000000     0.483900000000     0          
O1088    O      0.434200000000     0.340600000000     0.488600000000     0          
Zr1089   Zr     0.277380000000     0.692540000000     0.780640000000     0          
Zr1090   Zr     0.316960000000     0.790860000000     0.768270000000     0          
O1091    O      0.277180000000     0.753390000000     0.796730000000     0          
O1092    O      0.324330000000     0.727920000000     0.745030000000     0          
O1093    O      0.566160000000     0.581540000000     0.930860000000     0          
O1094    O      0.500820000000     0.603390000000     0.936440000000     0          
O1095    O      0.758900000000     0.816820000000     0.155560000000     0          
O1096    O      0.722480000000     0.761160000000     0.137240000000     0          
O1097    O      0.334780000000     0.684300000000     0.820060000000     0          
H1098    H      0.351400000000     0.705000000000     0.817900000000     0          
H1099    H      0.349200000000     0.664100000000     0.810700000000     0          
O1100    O      0.331100000000     0.855300000000     0.754400000000     0          
C1101    C      0.732900000000     0.810100000000     0.089500000000     0          
O1102    O      0.371200000000     0.771200000000     0.796500000000     0          
C1103    C      0.549900000000     0.650800000000     0.918900000000     0          
C1104    C      0.740900000000     0.793800000000     0.129000000000     0          
C1105    C      0.733600000000     0.851700000000     0.082600000000     0          
H1106    H      0.739300000000     0.870100000000     0.103400000000     0          
C1107    C      0.539700000000     0.608800000000     0.928000000000     0          
C1108    C      0.716600000000     0.798500000000     0.018300000000     0          
H1109    H      0.711500000000     0.780000000000     0.997600000000     0          
O1110    O      0.400700000000     0.721700000000     0.757200000000     0          
C1111    C      0.715900000000     0.842600000000     0.010200000000     0          
C1112    C      0.724900000000     0.865000000000     0.041800000000     0          
H1113    H      0.726000000000     0.892900000000     0.037300000000     0          
C1114    C      0.725000000000     0.785300000000     0.056700000000     0          
H1115    H      0.725300000000     0.757300000000     0.061000000000     0          
C1116    C      0.518700000000     0.682600000000     0.919800000000     0          
H1117    H      0.492400000000     0.675700000000     0.927600000000     0          
C1118    C      0.514900000000     0.783100000000     0.838800000000     0          
O1119    O      0.280300000000     0.869400000000     0.706000000000     0          
C1120    C      0.473500000000     0.739000000000     0.798400000000     0          
H1121    H      0.471900000000     0.716800000000     0.781000000000     0          
C1122    C      0.652500000000     0.856600000000     0.916100000000     0          
C1123    C      0.566200000000     0.733000000000     0.898700000000     0          
C1124    C      0.672000000000     0.838500000000     0.953000000000     0          
H1125    H      0.662500000000     0.813800000000     0.963000000000     0          
C1126    C      0.441700000000     0.760800000000     0.803500000000     0          
C1127    C      0.703500000000     0.857800000000     0.972100000000     0          
C1128    C      0.589200000000     0.662100000000     0.906400000000     0          
H1129    H      0.609800000000     0.642900000000     0.904500000000     0          
C1130    C      0.526500000000     0.720200000000     0.910100000000     0          
H1131    H      0.505600000000     0.739300000000     0.910800000000     0          
C1132    C      0.602300000000     0.855800000000     0.863300000000     0          
C1133    C      0.511500000000     0.747200000000     0.818000000000     0          
H1134    H      0.533000000000     0.728900000000     0.816700000000     0          
C1135    C      0.564300000000     0.838700000000     0.845100000000     0          
H1136    H      0.548800000000     0.853200000000     0.826400000000     0          
C1137    C      0.552900000000     0.797400000000     0.858600000000     0          
C1138    C      0.574400000000     0.775800000000     0.883600000000     0          
C1139    C      0.619800000000     0.832700000000     0.894000000000     0          
C1140    C      0.608500000000     0.796900000000     0.904600000000     0          
H1141    H      0.621800000000     0.783900000000     0.925900000000     0          
C1142    C      0.596600000000     0.702500000000     0.897000000000     0          
H1143    H      0.622700000000     0.710000000000     0.889200000000     0          
C1144    C      0.402500000000     0.747400000000     0.782800000000     0          
C1145    C      0.481900000000     0.807300000000     0.845100000000     0          
H1146    H      0.484300000000     0.831700000000     0.859300000000     0          
C1147    C      0.313900000000     0.875700000000     0.732100000000     0          
H1148    H      0.324200000000     0.902000000000     0.730800000000     0          
C1149    C      0.443300000000     0.794600000000     0.829300000000     0          
H1150    H      0.419700000000     0.808600000000     0.836100000000     0          
O1151    O      0.585400000000     0.795600000000     0.016100000000     0          
O1152    O      0.565800000000     0.840600000000     0.011400000000     0          
Zr1153   Zr     0.777380000000     0.807460000000     0.219360000000     0          
Zr1154   Zr     0.816960000000     0.709140000000     0.231730000000     0          
O1155    O      0.777180000000     0.746610000000     0.203270000000     0          
O1156    O      0.824330000000     0.772080000000     0.254970000000     0          
O1157    O      0.066160000000     0.918460000000     0.069140000000     0          
O1158    O      0.000820000000     0.896610000000     0.063560000000     0          
O1159    O      0.258900000000     0.683180000000     0.844440000000     0          
O1160    O      0.222480000000     0.738840000000     0.862760000000     0          
O1161    O      0.834780000000     0.815700000000     0.179940000000     0          
H1162    H      0.851400000000     0.795000000000     0.182100000000     0          
H1163    H      0.849200000000     0.835900000000     0.189300000000     0          
O1164    O      0.831100000000     0.644700000000     0.245600000000     0          
C1165    C      0.232900000000     0.689900000000     0.910500000000     0          
O1166    O      0.871200000000     0.728800000000     0.203500000000     0          
C1167    C      0.049900000000     0.849200000000     0.081100000000     0          
C1168    C      0.240900000000     0.706200000000     0.871000000000     0          
C1169    C      0.233600000000     0.648300000000     0.917400000000     0          
H1170    H      0.239300000000     0.629900000000     0.896600000000     0          
C1171    C      0.039700000000     0.891200000000     0.072000000000     0          
C1172    C      0.216600000000     0.701500000000     0.981700000000     0          
H1173    H      0.211500000000     0.720000000000     0.002400000000     0          
O1174    O      0.900700000000     0.778300000000     0.242800000000     0          
C1175    C      0.215900000000     0.657400000000     0.989800000000     0          
C1176    C      0.224900000000     0.635000000000     0.958200000000     0          
H1177    H      0.226000000000     0.607100000000     0.962700000000     0          
C1178    C      0.225000000000     0.714700000000     0.943300000000     0          
H1179    H      0.225300000000     0.742700000000     0.939000000000     0          
C1180    C      0.018700000000     0.817400000000     0.080200000000     0          
H1181    H      0.992400000000     0.824300000000     0.072400000000     0          
C1182    C      0.014900000000     0.716900000000     0.161200000000     0          
O1183    O      0.780300000000     0.630600000000     0.294000000000     0          
C1184    C      0.973500000000     0.761000000000     0.201600000000     0          
H1185    H      0.971900000000     0.783200000000     0.219000000000     0          
C1186    C      0.152500000000     0.643400000000     0.083900000000     0          
C1187    C      0.066200000000     0.767000000000     0.101300000000     0          
C1188    C      0.172000000000     0.661500000000     0.047000000000     0          
H1189    H      0.162500000000     0.686200000000     0.037000000000     0          
C1190    C      0.941700000000     0.739200000000     0.196500000000     0          
C1191    C      0.203500000000     0.642200000000     0.027900000000     0          
C1192    C      0.089200000000     0.837900000000     0.093600000000     0          
H1193    H      0.109800000000     0.857100000000     0.095500000000     0          
C1194    C      0.026500000000     0.779800000000     0.089900000000     0          
H1195    H      0.005600000000     0.760700000000     0.089200000000     0          
C1196    C      0.102300000000     0.644200000000     0.136700000000     0          
C1197    C      0.011500000000     0.752800000000     0.182000000000     0          
H1198    H      0.033000000000     0.771100000000     0.183300000000     0          
C1199    C      0.064300000000     0.661300000000     0.154900000000     0          
H1200    H      0.048800000000     0.646800000000     0.173600000000     0          
C1201    C      0.052900000000     0.702600000000     0.141400000000     0          
C1202    C      0.074400000000     0.724200000000     0.116400000000     0          
C1203    C      0.119800000000     0.667300000000     0.106000000000     0          
C1204    C      0.108500000000     0.703100000000     0.095400000000     0          
H1205    H      0.121800000000     0.716100000000     0.074100000000     0          
C1206    C      0.096600000000     0.797500000000     0.103000000000     0          
H1207    H      0.122700000000     0.790000000000     0.110800000000     0          
C1208    C      0.902500000000     0.752600000000     0.217200000000     0          
C1209    C      0.981900000000     0.692700000000     0.154900000000     0          
H1210    H      0.984300000000     0.668300000000     0.140700000000     0          
C1211    C      0.813900000000     0.624300000000     0.267900000000     0          
H1212    H      0.824200000000     0.598000000000     0.269200000000     0          
C1213    C      0.943300000000     0.705400000000     0.170700000000     0          
H1214    H      0.919700000000     0.691400000000     0.163900000000     0          
O1215    O      0.085400000000     0.704400000000     0.983900000000     0          
O1216    O      0.065800000000     0.659400000000     0.988600000000     0          
Zr1217   Zr     0.222620000000     0.307460000000     0.280640000000     0          
Zr1218   Zr     0.183040000000     0.209140000000     0.268270000000     0          
O1219    O      0.222820000000     0.246610000000     0.296730000000     0          
O1220    O      0.175670000000     0.272080000000     0.245030000000     0          
O1221    O      0.933840000000     0.418460000000     0.430860000000     0          
O1222    O      0.999180000000     0.396610000000     0.436440000000     0          
O1223    O      0.741100000000     0.183180000000     0.655560000000     0          
O1224    O      0.777520000000     0.238840000000     0.637240000000     0          
O1225    O      0.165220000000     0.315700000000     0.320060000000     0          
H1226    H      0.148600000000     0.295000000000     0.317900000000     0          
H1227    H      0.150800000000     0.335900000000     0.310700000000     0          
O1228    O      0.168900000000     0.144700000000     0.254400000000     0          
C1229    C      0.767100000000     0.189900000000     0.589500000000     0          
O1230    O      0.128800000000     0.228800000000     0.296500000000     0          
C1231    C      0.950100000000     0.349200000000     0.418900000000     0          
C1232    C      0.759100000000     0.206200000000     0.629000000000     0          
C1233    C      0.766400000000     0.148300000000     0.582600000000     0          
H1234    H      0.760700000000     0.129900000000     0.603400000000     0          
C1235    C      0.960300000000     0.391200000000     0.428000000000     0          
C1236    C      0.783400000000     0.201500000000     0.518300000000     0          
H1237    H      0.788500000000     0.220000000000     0.497600000000     0          
O1238    O      0.099300000000     0.278300000000     0.257200000000     0          
C1239    C      0.784100000000     0.157400000000     0.510200000000     0          
C1240    C      0.775100000000     0.135000000000     0.541800000000     0          
H1241    H      0.774000000000     0.107100000000     0.537300000000     0          
C1242    C      0.775000000000     0.214700000000     0.556700000000     0          
H1243    H      0.774700000000     0.242700000000     0.561000000000     0          
C1244    C      0.981300000000     0.317400000000     0.419800000000     0          
H1245    H      0.007600000000     0.324300000000     0.427600000000     0          
C1246    C      0.985100000000     0.216900000000     0.338800000000     0          
O1247    O      0.219700000000     0.130600000000     0.206000000000     0          
C1248    C      0.026500000000     0.261000000000     0.298400000000     0          
H1249    H      0.028100000000     0.283200000000     0.281000000000     0          
C1250    C      0.847500000000     0.143400000000     0.416100000000     0          
C1251    C      0.933800000000     0.267000000000     0.398700000000     0          
C1252    C      0.828000000000     0.161500000000     0.453000000000     0          
H1253    H      0.837500000000     0.186200000000     0.463000000000     0          
C1254    C      0.058300000000     0.239200000000     0.303500000000     0          
C1255    C      0.796500000000     0.142200000000     0.472100000000     0          
C1256    C      0.910800000000     0.337900000000     0.406400000000     0          
H1257    H      0.890200000000     0.357100000000     0.404500000000     0          
C1258    C      0.973500000000     0.279800000000     0.410100000000     0          
H1259    H      0.994400000000     0.260700000000     0.410800000000     0          
C1260    C      0.897700000000     0.144200000000     0.363300000000     0          
C1261    C      0.988500000000     0.252800000000     0.318000000000     0          
H1262    H      0.967000000000     0.271100000000     0.316700000000     0          
C1263    C      0.935700000000     0.161300000000     0.345100000000     0          
H1264    H      0.951200000000     0.146800000000     0.326400000000     0          
C1265    C      0.947100000000     0.202600000000     0.358600000000     0          
C1266    C      0.925600000000     0.224200000000     0.383600000000     0          
C1267    C      0.880200000000     0.167300000000     0.394000000000     0          
C1268    C      0.891500000000     0.203100000000     0.404600000000     0          
H1269    H      0.878200000000     0.216100000000     0.425900000000     0          
C1270    C      0.903400000000     0.297500000000     0.397000000000     0          
H1271    H      0.877300000000     0.290000000000     0.389200000000     0          
C1272    C      0.097500000000     0.252600000000     0.282800000000     0          
C1273    C      0.018100000000     0.192700000000     0.345100000000     0          
H1274    H      0.015700000000     0.168300000000     0.359300000000     0          
C1275    C      0.186100000000     0.124300000000     0.232100000000     0          
H1276    H      0.175800000000     0.098000000000     0.230800000000     0          
C1277    C      0.056700000000     0.205400000000     0.329300000000     0          
H1278    H      0.080300000000     0.191400000000     0.336100000000     0          
O1279    O      0.914600000000     0.204400000000     0.516100000000     0          
O1280    O      0.934200000000     0.159400000000     0.511400000000     0          
Zr1281   Zr     0.692540000000     0.780640000000     0.277380000000     0          
Zr1282   Zr     0.790860000000     0.768270000000     0.316960000000     0          
O1283    O      0.753390000000     0.796730000000     0.277180000000     0          
O1284    O      0.727920000000     0.745030000000     0.324330000000     0          
O1285    O      0.581540000000     0.930860000000     0.566160000000     0          
O1286    O      0.603390000000     0.936440000000     0.500820000000     0          
O1287    O      0.816820000000     0.155560000000     0.758900000000     0          
O1288    O      0.761160000000     0.137240000000     0.722480000000     0          
O1289    O      0.684300000000     0.820060000000     0.334780000000     0          
H1290    H      0.705000000000     0.817900000000     0.351400000000     0          
H1291    H      0.664100000000     0.810700000000     0.349200000000     0          
O1292    O      0.855300000000     0.754400000000     0.331100000000     0          
C1293    C      0.810100000000     0.089500000000     0.732900000000     0          
O1294    O      0.771200000000     0.796500000000     0.371200000000     0          
C1295    C      0.650800000000     0.918900000000     0.549900000000     0          
C1296    C      0.793800000000     0.129000000000     0.740900000000     0          
C1297    C      0.851700000000     0.082600000000     0.733600000000     0          
H1298    H      0.870100000000     0.103400000000     0.739300000000     0          
C1299    C      0.608800000000     0.928000000000     0.539700000000     0          
C1300    C      0.798500000000     0.018300000000     0.716600000000     0          
H1301    H      0.780000000000     0.997600000000     0.711500000000     0          
O1302    O      0.721700000000     0.757200000000     0.400700000000     0          
C1303    C      0.842600000000     0.010200000000     0.715900000000     0          
C1304    C      0.865000000000     0.041800000000     0.724900000000     0          
H1305    H      0.892900000000     0.037300000000     0.726000000000     0          
C1306    C      0.785300000000     0.056700000000     0.725000000000     0          
H1307    H      0.757300000000     0.061000000000     0.725300000000     0          
C1308    C      0.682600000000     0.919800000000     0.518700000000     0          
H1309    H      0.675700000000     0.927600000000     0.492400000000     0          
C1310    C      0.783100000000     0.838800000000     0.514900000000     0          
O1311    O      0.869400000000     0.706000000000     0.280300000000     0          
C1312    C      0.739000000000     0.798400000000     0.473500000000     0          
H1313    H      0.716800000000     0.781000000000     0.471900000000     0          
C1314    C      0.856600000000     0.916100000000     0.652500000000     0          
C1315    C      0.733000000000     0.898700000000     0.566200000000     0          
C1316    C      0.838500000000     0.953000000000     0.672000000000     0          
H1317    H      0.813800000000     0.963000000000     0.662500000000     0          
C1318    C      0.760800000000     0.803500000000     0.441700000000     0          
C1319    C      0.857800000000     0.972100000000     0.703500000000     0          
C1320    C      0.662100000000     0.906400000000     0.589200000000     0          
H1321    H      0.642900000000     0.904500000000     0.609800000000     0          
C1322    C      0.720200000000     0.910100000000     0.526500000000     0          
H1323    H      0.739300000000     0.910800000000     0.505600000000     0          
C1324    C      0.855800000000     0.863300000000     0.602300000000     0          
C1325    C      0.747200000000     0.818000000000     0.511500000000     0          
H1326    H      0.728900000000     0.816700000000     0.533000000000     0          
C1327    C      0.838700000000     0.845100000000     0.564300000000     0          
H1328    H      0.853200000000     0.826400000000     0.548800000000     0          
C1329    C      0.797400000000     0.858600000000     0.552900000000     0          
C1330    C      0.775800000000     0.883600000000     0.574400000000     0          
C1331    C      0.832700000000     0.894000000000     0.619800000000     0          
C1332    C      0.796900000000     0.904600000000     0.608500000000     0          
H1333    H      0.783900000000     0.925900000000     0.621800000000     0          
C1334    C      0.702500000000     0.897000000000     0.596600000000     0          
H1335    H      0.710000000000     0.889200000000     0.622700000000     0          
C1336    C      0.747400000000     0.782800000000     0.402500000000     0          
C1337    C      0.807300000000     0.845100000000     0.481900000000     0          
H1338    H      0.831700000000     0.859300000000     0.484300000000     0          
C1339    C      0.875700000000     0.732100000000     0.313900000000     0          
H1340    H      0.902000000000     0.730800000000     0.324200000000     0          
C1341    C      0.794600000000     0.829300000000     0.443300000000     0          
H1342    H      0.808600000000     0.836100000000     0.419700000000     0          
O1343    O      0.795600000000     0.016100000000     0.585400000000     0          
O1344    O      0.840600000000     0.011400000000     0.565800000000     0          
Zr1345   Zr     0.192540000000     0.719360000000     0.722620000000     0          
Zr1346   Zr     0.290860000000     0.731730000000     0.683040000000     0          
O1347    O      0.253390000000     0.703270000000     0.722820000000     0          
O1348    O      0.227920000000     0.754970000000     0.675670000000     0          
O1349    O      0.081540000000     0.569140000000     0.433840000000     0          
O1350    O      0.103390000000     0.563560000000     0.499180000000     0          
O1351    O      0.316820000000     0.344440000000     0.241100000000     0          
O1352    O      0.261160000000     0.362760000000     0.277520000000     0          
O1353    O      0.184300000000     0.679940000000     0.665220000000     0          
H1354    H      0.205000000000     0.682100000000     0.648600000000     0          
H1355    H      0.164100000000     0.689300000000     0.650800000000     0          
O1356    O      0.355300000000     0.745600000000     0.668900000000     0          
C1357    C      0.310100000000     0.410500000000     0.267100000000     0          
O1358    O      0.271200000000     0.703500000000     0.628800000000     0          
C1359    C      0.150800000000     0.581100000000     0.450100000000     0          
C1360    C      0.293800000000     0.371000000000     0.259100000000     0          
C1361    C      0.351700000000     0.417400000000     0.266400000000     0          
H1362    H      0.370100000000     0.396600000000     0.260700000000     0          
C1363    C      0.108800000000     0.572000000000     0.460300000000     0          
C1364    C      0.298500000000     0.481700000000     0.283400000000     0          
H1365    H      0.280000000000     0.502400000000     0.288500000000     0          
O1366    O      0.221700000000     0.742800000000     0.599300000000     0          
C1367    C      0.342600000000     0.489800000000     0.284100000000     0          
C1368    C      0.365000000000     0.458200000000     0.275100000000     0          
H1369    H      0.392900000000     0.462700000000     0.274000000000     0          
C1370    C      0.285300000000     0.443300000000     0.275000000000     0          
H1371    H      0.257300000000     0.439000000000     0.274700000000     0          
C1372    C      0.182600000000     0.580200000000     0.481300000000     0          
H1373    H      0.175700000000     0.572400000000     0.507600000000     0          
C1374    C      0.283100000000     0.661200000000     0.485100000000     0          
O1375    O      0.369400000000     0.794000000000     0.719700000000     0          
C1376    C      0.239000000000     0.701600000000     0.526500000000     0          
H1377    H      0.216800000000     0.719000000000     0.528100000000     0          
C1378    C      0.356600000000     0.583900000000     0.347500000000     0          
C1379    C      0.233000000000     0.601300000000     0.433800000000     0          
C1380    C      0.338500000000     0.547000000000     0.328000000000     0          
H1381    H      0.313800000000     0.537000000000     0.337500000000     0          
C1382    C      0.260800000000     0.696500000000     0.558300000000     0          
C1383    C      0.357800000000     0.527900000000     0.296500000000     0          
C1384    C      0.162100000000     0.593600000000     0.410800000000     0          
H1385    H      0.142900000000     0.595500000000     0.390200000000     0          
C1386    C      0.220200000000     0.589900000000     0.473500000000     0          
H1387    H      0.239300000000     0.589200000000     0.494400000000     0          
C1388    C      0.355800000000     0.636700000000     0.397700000000     0          
C1389    C      0.247200000000     0.682000000000     0.488500000000     0          
H1390    H      0.228900000000     0.683300000000     0.467000000000     0          
C1391    C      0.338700000000     0.654900000000     0.435700000000     0          
H1392    H      0.353200000000     0.673600000000     0.451200000000     0          
C1393    C      0.297400000000     0.641400000000     0.447100000000     0          
C1394    C      0.275800000000     0.616400000000     0.425600000000     0          
C1395    C      0.332700000000     0.606000000000     0.380200000000     0          
C1396    C      0.296900000000     0.595400000000     0.391500000000     0          
H1397    H      0.283900000000     0.574100000000     0.378200000000     0          
C1398    C      0.202500000000     0.603000000000     0.403400000000     0          
H1399    H      0.210000000000     0.610800000000     0.377300000000     0          
C1400    C      0.247400000000     0.717200000000     0.597500000000     0          
C1401    C      0.307300000000     0.654900000000     0.518100000000     0          
H1402    H      0.331700000000     0.640700000000     0.515700000000     0          
C1403    C      0.375700000000     0.767900000000     0.686100000000     0          
H1404    H      0.402000000000     0.769200000000     0.675800000000     0          
C1405    C      0.294600000000     0.670700000000     0.556700000000     0          
H1406    H      0.308600000000     0.663900000000     0.580300000000     0          
O1407    O      0.295600000000     0.483900000000     0.414600000000     0          
O1408    O      0.340600000000     0.488600000000     0.434200000000     0          
Zr1409   Zr     0.307460000000     0.280640000000     0.222620000000     0          
Zr1410   Zr     0.209140000000     0.268270000000     0.183040000000     0          
O1411    O      0.246610000000     0.296730000000     0.222820000000     0          
O1412    O      0.272080000000     0.245030000000     0.175670000000     0          
O1413    O      0.418460000000     0.430860000000     0.933840000000     0          
O1414    O      0.396610000000     0.436440000000     0.999180000000     0          
O1415    O      0.183180000000     0.655560000000     0.741100000000     0          
O1416    O      0.238840000000     0.637240000000     0.777520000000     0          
O1417    O      0.315700000000     0.320060000000     0.165220000000     0          
H1418    H      0.295000000000     0.317900000000     0.148600000000     0          
H1419    H      0.335900000000     0.310700000000     0.150800000000     0          
O1420    O      0.144700000000     0.254400000000     0.168900000000     0          
C1421    C      0.189900000000     0.589500000000     0.767100000000     0          
O1422    O      0.228800000000     0.296500000000     0.128800000000     0          
C1423    C      0.349200000000     0.418900000000     0.950100000000     0          
C1424    C      0.206200000000     0.629000000000     0.759100000000     0          
C1425    C      0.148300000000     0.582600000000     0.766400000000     0          
H1426    H      0.129900000000     0.603400000000     0.760700000000     0          
C1427    C      0.391200000000     0.428000000000     0.960300000000     0          
C1428    C      0.201500000000     0.518300000000     0.783400000000     0          
H1429    H      0.220000000000     0.497600000000     0.788500000000     0          
O1430    O      0.278300000000     0.257200000000     0.099300000000     0          
C1431    C      0.157400000000     0.510200000000     0.784100000000     0          
C1432    C      0.135000000000     0.541800000000     0.775100000000     0          
H1433    H      0.107100000000     0.537300000000     0.774000000000     0          
C1434    C      0.214700000000     0.556700000000     0.775000000000     0          
H1435    H      0.242700000000     0.561000000000     0.774700000000     0          
C1436    C      0.317400000000     0.419800000000     0.981300000000     0          
H1437    H      0.324300000000     0.427600000000     0.007600000000     0          
C1438    C      0.216900000000     0.338800000000     0.985100000000     0          
O1439    O      0.130600000000     0.206000000000     0.219700000000     0          
C1440    C      0.261000000000     0.298400000000     0.026500000000     0          
H1441    H      0.283200000000     0.281000000000     0.028100000000     0          
C1442    C      0.143400000000     0.416100000000     0.847500000000     0          
C1443    C      0.267000000000     0.398700000000     0.933800000000     0          
C1444    C      0.161500000000     0.453000000000     0.828000000000     0          
H1445    H      0.186200000000     0.463000000000     0.837500000000     0          
C1446    C      0.239200000000     0.303500000000     0.058300000000     0          
C1447    C      0.142200000000     0.472100000000     0.796500000000     0          
C1448    C      0.337900000000     0.406400000000     0.910800000000     0          
H1449    H      0.357100000000     0.404500000000     0.890200000000     0          
C1450    C      0.279800000000     0.410100000000     0.973500000000     0          
H1451    H      0.260700000000     0.410800000000     0.994400000000     0          
C1452    C      0.144200000000     0.363300000000     0.897700000000     0          
C1453    C      0.252800000000     0.318000000000     0.988500000000     0          
H1454    H      0.271100000000     0.316700000000     0.967000000000     0          
C1455    C      0.161300000000     0.345100000000     0.935700000000     0          
H1456    H      0.146800000000     0.326400000000     0.951200000000     0          
C1457    C      0.202600000000     0.358600000000     0.947100000000     0          
C1458    C      0.224200000000     0.383600000000     0.925600000000     0          
C1459    C      0.167300000000     0.394000000000     0.880200000000     0          
C1460    C      0.203100000000     0.404600000000     0.891500000000     0          
H1461    H      0.216100000000     0.425900000000     0.878200000000     0          
C1462    C      0.297500000000     0.397000000000     0.903400000000     0          
H1463    H      0.290000000000     0.389200000000     0.877300000000     0          
C1464    C      0.252600000000     0.282800000000     0.097500000000     0          
C1465    C      0.192700000000     0.345100000000     0.018100000000     0          
H1466    H      0.168300000000     0.359300000000     0.015700000000     0          
C1467    C      0.124300000000     0.232100000000     0.186100000000     0          
H1468    H      0.098000000000     0.230800000000     0.175800000000     0          
C1469    C      0.205400000000     0.329300000000     0.056700000000     0          
H1470    H      0.191400000000     0.336100000000     0.080300000000     0          
O1471    O      0.204400000000     0.516100000000     0.914600000000     0          
O1472    O      0.159400000000     0.511400000000     0.934200000000     0          
Zr1473   Zr     0.807460000000     0.219360000000     0.777380000000     0          
Zr1474   Zr     0.709140000000     0.231730000000     0.816960000000     0          
O1475    O      0.746610000000     0.203270000000     0.777180000000     0          
O1476    O      0.772080000000     0.254970000000     0.824330000000     0          
O1477    O      0.918460000000     0.069140000000     0.066160000000     0          
O1478    O      0.896610000000     0.063560000000     0.000820000000     0          
O1479    O      0.683180000000     0.844440000000     0.258900000000     0          
O1480    O      0.738840000000     0.862760000000     0.222480000000     0          
O1481    O      0.815700000000     0.179940000000     0.834780000000     0          
H1482    H      0.795000000000     0.182100000000     0.851400000000     0          
H1483    H      0.835900000000     0.189300000000     0.849200000000     0          
O1484    O      0.644700000000     0.245600000000     0.831100000000     0          
C1485    C      0.689900000000     0.910500000000     0.232900000000     0          
O1486    O      0.728800000000     0.203500000000     0.871200000000     0          
C1487    C      0.849200000000     0.081100000000     0.049900000000     0          
C1488    C      0.706200000000     0.871000000000     0.240900000000     0          
C1489    C      0.648300000000     0.917400000000     0.233600000000     0          
H1490    H      0.629900000000     0.896600000000     0.239300000000     0          
C1491    C      0.891200000000     0.072000000000     0.039700000000     0          
C1492    C      0.701500000000     0.981700000000     0.216600000000     0          
H1493    H      0.720000000000     0.002400000000     0.211500000000     0          
O1494    O      0.778300000000     0.242800000000     0.900700000000     0          
C1495    C      0.657400000000     0.989800000000     0.215900000000     0          
C1496    C      0.635000000000     0.958200000000     0.224900000000     0          
H1497    H      0.607100000000     0.962700000000     0.226000000000     0          
C1498    C      0.714700000000     0.943300000000     0.225000000000     0          
H1499    H      0.742700000000     0.939000000000     0.225300000000     0          
C1500    C      0.817400000000     0.080200000000     0.018700000000     0          
H1501    H      0.824300000000     0.072400000000     0.992400000000     0          
C1502    C      0.716900000000     0.161200000000     0.014900000000     0          
O1503    O      0.630600000000     0.294000000000     0.780300000000     0          
C1504    C      0.761000000000     0.201600000000     0.973500000000     0          
H1505    H      0.783200000000     0.219000000000     0.971900000000     0          
C1506    C      0.643400000000     0.083900000000     0.152500000000     0          
C1507    C      0.767000000000     0.101300000000     0.066200000000     0          
C1508    C      0.661500000000     0.047000000000     0.172000000000     0          
H1509    H      0.686200000000     0.037000000000     0.162500000000     0          
C1510    C      0.739200000000     0.196500000000     0.941700000000     0          
C1511    C      0.642200000000     0.027900000000     0.203500000000     0          
C1512    C      0.837900000000     0.093600000000     0.089200000000     0          
H1513    H      0.857100000000     0.095500000000     0.109800000000     0          
C1514    C      0.779800000000     0.089900000000     0.026500000000     0          
H1515    H      0.760700000000     0.089200000000     0.005600000000     0          
C1516    C      0.644200000000     0.136700000000     0.102300000000     0          
C1517    C      0.752800000000     0.182000000000     0.011500000000     0          
H1518    H      0.771100000000     0.183300000000     0.033000000000     0          
C1519    C      0.661300000000     0.154900000000     0.064300000000     0          
H1520    H      0.646800000000     0.173600000000     0.048800000000     0          
C1521    C      0.702600000000     0.141400000000     0.052900000000     0          
C1522    C      0.724200000000     0.116400000000     0.074400000000     0          
C1523    C      0.667300000000     0.106000000000     0.119800000000     0          
C1524    C      0.703100000000     0.095400000000     0.108500000000     0          
H1525    H      0.716100000000     0.074100000000     0.121800000000     0          
C1526    C      0.797500000000     0.103000000000     0.096600000000     0          
H1527    H      0.790000000000     0.110800000000     0.122700000000     0          
C1528    C      0.752600000000     0.217200000000     0.902500000000     0          
C1529    C      0.692700000000     0.154900000000     0.981900000000     0          
H1530    H      0.668300000000     0.140700000000     0.984300000000     0          
C1531    C      0.624300000000     0.267900000000     0.813900000000     0          
H1532    H      0.598000000000     0.269200000000     0.824200000000     0          
C1533    C      0.705400000000     0.170700000000     0.943300000000     0          
H1534    H      0.691400000000     0.163900000000     0.919700000000     0          
O1535    O      0.704400000000     0.983900000000     0.085400000000     0          
O1536    O      0.659400000000     0.988600000000     0.065800000000     0          
O1537    O      0.536760000000     0.036760000000     0.463240000000     0          
O1538    O      0.464000000000     0.964000000000     0.536000000000     0          
O1539    O      0.963240000000     0.963240000000     0.963240000000     0          
O1540    O      0.036000000000     0.036000000000     0.036000000000     0          
O1541    O      0.463240000000     0.536760000000     0.036760000000     0          
O1542    O      0.536000000000     0.464000000000     0.964000000000     0          
O1543    O      0.036760000000     0.463240000000     0.536760000000     0          
O1544    O      0.964000000000     0.536000000000     0.464000000000     0          
O1545    O      0.286760000000     0.286760000000     0.286760000000     0          
O1546    O      0.214000000000     0.214000000000     0.214000000000     0          
O1547    O      0.213240000000     0.713240000000     0.786760000000     0          
O1548    O      0.286000000000     0.786000000000     0.714000000000     0          
O1549    O      0.786760000000     0.213240000000     0.713240000000     0          
O1550    O      0.714000000000     0.286000000000     0.786000000000     0          
O1551    O      0.713240000000     0.786760000000     0.213240000000     0          
O1552    O      0.786000000000     0.714000000000     0.286000000000     0          


