data_VIKSAM

_audit_creation_method RASPA-1.0
_audit_creation_date 2020-11-2
_audit_author_name 'Rocio Bueno-Perez'

_cell_length_a    32.8831
_cell_length_b    32.8831
_cell_length_c    32.8831
_cell_angle_alpha 90
_cell_angle_beta  90
_cell_angle_gamma 90
_cell_volume      35556.4

_symmetry_cell_setting          cubic
_symmetry_space_group_name_Hall 'P 1'
_symmetry_space_group_name_H-M  'P 1'
_symmetry_Int_Tables_number     1

_symmetry_equiv_pos_as_xyz 'x,y,z'

loop_
_atom_site_label
_atom_site_type_symbol
_atom_site_fract_x
_atom_site_fract_y
_atom_site_fract_z
_atom_site_charge
O3       O      0.793300000000     0.282400000000     0.134000000000     0          
C8       C      0.769900000000     0.317100000000     0.127400000000     0          
H5       H      0.778450000000     0.333250000000     0.105830000000     0          
C9       C      0.646200000000     0.551800000000     0.202700000000     0          
C10      C      0.617500000000     0.574900000000     0.224700000000     0          
C11      C      0.598900000000     0.607600000000     0.205700000000     0          
H6       H      0.579400000000     0.622450000000     0.219880000000     0          
C12      C      0.608400000000     0.619100000000     0.166000000000     0          
C13      C      0.639000000000     0.597300000000     0.145100000000     0          
C14      C      0.656300000000     0.564200000000     0.163800000000     0          
H7       H      0.675770000000     0.549330000000     0.149670000000     0          
C15      C      0.605800000000     0.564400000000     0.268000000000     0          
C16      C      0.593500000000     0.525700000000     0.278100000000     0          
H8       H      0.592740000000     0.505340000000     0.258440000000     0          
C17      C      0.582100000000     0.517300000000     0.318000000000     0          
H9       H      0.574330000000     0.491010000000     0.325170000000     0          
C18      C      0.582300000000     0.547800000000     0.347300000000     0          
C19      C      0.593300000000     0.587800000000     0.337900000000     0          
H10      H      0.593380000000     0.608150000000     0.357610000000     0          
C20      C      0.604600000000     0.596000000000     0.296600000000     0          
H11      H      0.611190000000     0.622360000000     0.288730000000     0          
C21      C      0.569200000000     0.537900000000     0.390300000000     0          
C22      C      0.586500000000     0.651100000000     0.144100000000     0          
C23      C      0.551600000000     0.669200000000     0.161000000000     0          
H12      H      0.541760000000     0.659250000000     0.185610000000     0          
C24      C      0.531500000000     0.700500000000     0.143100000000     0          
C25      C      0.491400000000     0.714300000000     0.159100000000     0          
C26      C      0.484900000000     0.716600000000     0.201300000000     0          
H13      H      0.506310000000     0.713030000000     0.219380000000     0          
C27      C      0.445900000000     0.724400000000     0.215300000000     0          
H14      H      0.440820000000     0.724770000000     0.243120000000     0          
C28      C      0.414900000000     0.731600000000     0.188500000000     0          
C29      C      0.421400000000     0.731800000000     0.146900000000     0          
H15      H      0.400370000000     0.737990000000     0.129030000000     0          
C30      C      0.459600000000     0.722800000000     0.132400000000     0          
H16      H      0.464290000000     0.722340000000     0.104530000000     0          
C31      C      0.372100000000     0.738000000000     0.204600000000     0          
O5       O      0.755840000000     0.321750000000     0.274290000000     0          
O7       O      0.567770000000     0.565450000000     0.416710000000     0          
O8       O      0.560150000000     0.501070000000     0.395190000000     0          
O9       O      0.347510000000     0.757700000000     0.181860000000     0          
O10      O      0.364660000000     0.721620000000     0.237790000000     0          
Zr1      Zr     0.729880000000     0.315820000000     0.211780000000     0          
O12      O      0.701570000000     0.274720000000     0.248620000000     0          
Zr2      Zr     0.717780000000     0.275230000000     0.309350000000     0          
C32      C      0.604000000000     0.356300000000     0.331700000000     0          
H17      H      0.615330000000     0.336660000000     0.348630000000     0          
C33      C      0.623400000000     0.368000000000     0.296800000000     0          
C34      C      0.663900000000     0.350500000000     0.286000000000     0          
C35      C      0.567100000000     0.374400000000     0.341200000000     0          
H18      H      0.555250000000     0.369620000000     0.366390000000     0          
C36      C      0.548000000000     0.399300000000     0.314000000000     0          
H19      H      0.521690000000     0.408260000000     0.319170000000     0          
C37      C      0.567600000000     0.411200000000     0.278500000000     0          
H20      H      0.555870000000     0.429930000000     0.260870000000     0          
C38      C      0.605000000000     0.394500000000     0.270500000000     0          
H21      H      0.618170000000     0.401310000000     0.246400000000     0          
O14      O      0.677700000000     0.351400000000     0.251100000000     0          
C39?     C      0.740100000000     0.406700000000     0.241900000000     0          
C40?     C      0.712800000000     0.442800000000     0.233600000000     0          
C41?     C      0.716300000000     0.476400000000     0.258700000000     0          
H22?     H      0.733080000000     0.475430000000     0.281520000000     0          
C42?     C      0.694600000000     0.511600000000     0.249600000000     0          
H23?     H      0.697420000000     0.534370000000     0.266110000000     0          
C43?     C      0.669100000000     0.513100000000     0.216600000000     0          
C44?     C      0.665000000000     0.477800000000     0.192600000000     0          
H24?     H      0.646160000000     0.477210000000     0.171530000000     0          
C45?     C      0.689100000000     0.443700000000     0.200400000000     0          
H25?     H      0.688700000000     0.421740000000     0.182630000000     0          
O15?     O      0.765000000000     0.406300000000     0.272400000000     0          
O16?     O      0.744400000000     0.379000000000     0.213900000000     0          
O17?     O      0.749000000000     0.333200000000     0.149700000000     0          
O18?     O      0.684200000000     0.333700000000     0.312400000000     0          
O6       O      0.785340000000     0.285340000000     0.214660000000     0          
O11      O      0.710780000000     0.210780000000     0.289220000000     0          
O3       O      0.467600000000     0.043300000000     0.884000000000     0          
C8       C      0.432900000000     0.019900000000     0.877400000000     0          
H5       H      0.416750000000     0.028450000000     0.855830000000     0          
C9       C      0.198200000000     0.896200000000     0.952700000000     0          
C10      C      0.175100000000     0.867500000000     0.974700000000     0          
C11      C      0.142400000000     0.848900000000     0.955700000000     0          
H6       H      0.127550000000     0.829400000000     0.969880000000     0          
C12      C      0.130900000000     0.858400000000     0.916000000000     0          
C13      C      0.152700000000     0.889000000000     0.895100000000     0          
C14      C      0.185800000000     0.906300000000     0.913800000000     0          
H7       H      0.200670000000     0.925770000000     0.899670000000     0          
C15      C      0.185600000000     0.855800000000     0.018000000000     0          
C16      C      0.224300000000     0.843500000000     0.028100000000     0          
H8       H      0.244660000000     0.842740000000     0.008440000000     0          
C17      C      0.232700000000     0.832100000000     0.068000000000     0          
H9       H      0.258990000000     0.824330000000     0.075170000000     0          
C18      C      0.202200000000     0.832300000000     0.097300000000     0          
C19      C      0.162200000000     0.843300000000     0.087900000000     0          
H10      H      0.141850000000     0.843380000000     0.107610000000     0          
C20      C      0.154000000000     0.854600000000     0.046600000000     0          
H11      H      0.127640000000     0.861190000000     0.038730000000     0          
C21      C      0.212100000000     0.819200000000     0.140300000000     0          
C22      C      0.098900000000     0.836500000000     0.894100000000     0          
C23      C      0.080800000000     0.801600000000     0.911000000000     0          
H12      H      0.090750000000     0.791760000000     0.935610000000     0          
C24      C      0.049500000000     0.781500000000     0.893100000000     0          
C25      C      0.035700000000     0.741400000000     0.909100000000     0          
C26      C      0.033400000000     0.734900000000     0.951300000000     0          
H13      H      0.036970000000     0.756310000000     0.969380000000     0          
C27      C      0.025600000000     0.695900000000     0.965300000000     0          
H14      H      0.025230000000     0.690820000000     0.993120000000     0          
C28      C      0.018400000000     0.664900000000     0.938500000000     0          
C29      C      0.018200000000     0.671400000000     0.896900000000     0          
H15      H      0.012010000000     0.650370000000     0.879030000000     0          
C30      C      0.027200000000     0.709600000000     0.882400000000     0          
H16      H      0.027660000000     0.714290000000     0.854530000000     0          
C31      C      0.012000000000     0.622100000000     0.954600000000     0          
O5       O      0.428250000000     0.005840000000     0.024290000000     0          
O7       O      0.184550000000     0.817770000000     0.166710000000     0          
O8       O      0.248930000000     0.810150000000     0.145190000000     0          
O9       O      0.992300000000     0.597510000000     0.931860000000     0          
O10      O      0.028380000000     0.614660000000     0.987790000000     0          
Zr1      Zr     0.434180000000     0.979880000000     0.961780000000     0          
O12      O      0.475280000000     0.951570000000     0.998620000000     0          
Zr2      Zr     0.474770000000     0.967780000000     0.059350000000     0          
C32      C      0.393700000000     0.854000000000     0.081700000000     0          
H17      H      0.413340000000     0.865330000000     0.098630000000     0          
C33      C      0.382000000000     0.873400000000     0.046800000000     0          
C34      C      0.399500000000     0.913900000000     0.036000000000     0          
C35      C      0.375600000000     0.817100000000     0.091200000000     0          
H18      H      0.380380000000     0.805250000000     0.116390000000     0          
C36      C      0.350700000000     0.798000000000     0.064000000000     0          
H19      H      0.341740000000     0.771690000000     0.069170000000     0          
C37      C      0.338800000000     0.817600000000     0.028500000000     0          
H20      H      0.320070000000     0.805870000000     0.010870000000     0          
C38      C      0.355500000000     0.855000000000     0.020500000000     0          
H21      H      0.348690000000     0.868170000000     0.996400000000     0          
O14      O      0.398600000000     0.927700000000     0.001100000000     0          
C39?     C      0.343300000000     0.990100000000     0.991900000000     0          
C40?     C      0.307200000000     0.962800000000     0.983600000000     0          
C41?     C      0.273600000000     0.966300000000     0.008700000000     0          
H22?     H      0.274570000000     0.983080000000     0.031520000000     0          
C42?     C      0.238400000000     0.944600000000     0.999600000000     0          
H23?     H      0.215630000000     0.947420000000     0.016110000000     0          
C43?     C      0.236900000000     0.919100000000     0.966600000000     0          
C44?     C      0.272200000000     0.915000000000     0.942600000000     0          
H24?     H      0.272790000000     0.896160000000     0.921530000000     0          
C45?     C      0.306300000000     0.939100000000     0.950400000000     0          
H25?     H      0.328260000000     0.938700000000     0.932630000000     0          
O15?     O      0.343700000000     0.015000000000     0.022400000000     0          
O16?     O      0.371000000000     0.994400000000     0.963900000000     0          
O17?     O      0.416800000000     0.999000000000     0.899700000000     0          
O18?     O      0.416300000000     0.934200000000     0.062400000000     0          
O6       O      0.464660000000     0.035340000000     0.964660000000     0          
O11      O      0.539220000000     0.960780000000     0.039220000000     0          
O3       O      0.706700000000     0.717600000000     0.634000000000     0          
C8       C      0.730100000000     0.682900000000     0.627400000000     0          
H5       H      0.721550000000     0.666750000000     0.605830000000     0          
C9       C      0.853800000000     0.448200000000     0.702700000000     0          
C10      C      0.882500000000     0.425100000000     0.724700000000     0          
C11      C      0.901100000000     0.392400000000     0.705700000000     0          
H6       H      0.920600000000     0.377550000000     0.719880000000     0          
C12      C      0.891600000000     0.380900000000     0.666000000000     0          
C13      C      0.861000000000     0.402700000000     0.645100000000     0          
C14      C      0.843700000000     0.435800000000     0.663800000000     0          
H7       H      0.824230000000     0.450670000000     0.649670000000     0          
C15      C      0.894200000000     0.435600000000     0.768000000000     0          
C16      C      0.906500000000     0.474300000000     0.778100000000     0          
H8       H      0.907260000000     0.494660000000     0.758440000000     0          
C17      C      0.917900000000     0.482700000000     0.818000000000     0          
H9       H      0.925670000000     0.508990000000     0.825170000000     0          
C18      C      0.917700000000     0.452200000000     0.847300000000     0          
C19      C      0.906700000000     0.412200000000     0.837900000000     0          
H10      H      0.906620000000     0.391850000000     0.857610000000     0          
C20      C      0.895400000000     0.404000000000     0.796600000000     0          
H11      H      0.888810000000     0.377640000000     0.788730000000     0          
C21      C      0.930800000000     0.462100000000     0.890300000000     0          
C22      C      0.913500000000     0.348900000000     0.644100000000     0          
C23      C      0.948400000000     0.330800000000     0.661000000000     0          
H12      H      0.958240000000     0.340750000000     0.685610000000     0          
C24      C      0.968500000000     0.299500000000     0.643100000000     0          
C25      C      0.008600000000     0.285700000000     0.659100000000     0          
C26      C      0.015100000000     0.283400000000     0.701300000000     0          
H13      H      0.993690000000     0.286970000000     0.719380000000     0          
C27      C      0.054100000000     0.275600000000     0.715300000000     0          
H14      H      0.059180000000     0.275230000000     0.743120000000     0          
C28      C      0.085100000000     0.268400000000     0.688500000000     0          
C29      C      0.078600000000     0.268200000000     0.646900000000     0          
H15      H      0.099630000000     0.262010000000     0.629030000000     0          
C30      C      0.040400000000     0.277200000000     0.632400000000     0          
H16      H      0.035710000000     0.277660000000     0.604530000000     0          
C31      C      0.127900000000     0.262000000000     0.704600000000     0          
O5       O      0.744160000000     0.678250000000     0.774290000000     0          
O7       O      0.932230000000     0.434550000000     0.916710000000     0          
O8       O      0.939850000000     0.498930000000     0.895190000000     0          
O9       O      0.152490000000     0.242300000000     0.681860000000     0          
O10      O      0.135340000000     0.278380000000     0.737790000000     0          
Zr1      Zr     0.770120000000     0.684180000000     0.711780000000     0          
O12      O      0.798430000000     0.725280000000     0.748620000000     0          
Zr2      Zr     0.782220000000     0.724770000000     0.809350000000     0          
C32      C      0.896000000000     0.643700000000     0.831700000000     0          
H17      H      0.884670000000     0.663340000000     0.848630000000     0          
C33      C      0.876600000000     0.632000000000     0.796800000000     0          
C34      C      0.836100000000     0.649500000000     0.786000000000     0          
C35      C      0.932900000000     0.625600000000     0.841200000000     0          
H18      H      0.944750000000     0.630380000000     0.866390000000     0          
C36      C      0.952000000000     0.600700000000     0.814000000000     0          
H19      H      0.978310000000     0.591740000000     0.819170000000     0          
C37      C      0.932400000000     0.588800000000     0.778500000000     0          
H20      H      0.944130000000     0.570070000000     0.760870000000     0          
C38      C      0.895000000000     0.605500000000     0.770500000000     0          
H21      H      0.881830000000     0.598690000000     0.746400000000     0          
O14      O      0.822300000000     0.648600000000     0.751100000000     0          
C39?     C      0.759900000000     0.593300000000     0.741900000000     0          
C40?     C      0.787200000000     0.557200000000     0.733600000000     0          
C41?     C      0.783700000000     0.523600000000     0.758700000000     0          
H22?     H      0.766920000000     0.524570000000     0.781520000000     0          
C42?     C      0.805400000000     0.488400000000     0.749600000000     0          
H23?     H      0.802580000000     0.465630000000     0.766110000000     0          
C43?     C      0.830900000000     0.486900000000     0.716600000000     0          
C44?     C      0.835000000000     0.522200000000     0.692600000000     0          
H24?     H      0.853840000000     0.522790000000     0.671530000000     0          
C45?     C      0.810900000000     0.556300000000     0.700400000000     0          
H25?     H      0.811300000000     0.578260000000     0.682630000000     0          
O15?     O      0.735000000000     0.593700000000     0.772400000000     0          
O16?     O      0.755600000000     0.621000000000     0.713900000000     0          
O17?     O      0.751000000000     0.666800000000     0.649700000000     0          
O18?     O      0.815800000000     0.666300000000     0.812400000000     0          
O6       O      0.714660000000     0.714660000000     0.714660000000     0          
O11      O      0.789220000000     0.789220000000     0.789220000000     0          
O3       O      0.032400000000     0.956700000000     0.384000000000     0          
C8       C      0.067100000000     0.980100000000     0.377400000000     0          
H5       H      0.083250000000     0.971550000000     0.355830000000     0          
C9       C      0.301800000000     0.103800000000     0.452700000000     0          
C10      C      0.324900000000     0.132500000000     0.474700000000     0          
C11      C      0.357600000000     0.151100000000     0.455700000000     0          
H6       H      0.372450000000     0.170600000000     0.469880000000     0          
C12      C      0.369100000000     0.141600000000     0.416000000000     0          
C13      C      0.347300000000     0.111000000000     0.395100000000     0          
C14      C      0.314200000000     0.093700000000     0.413800000000     0          
H7       H      0.299330000000     0.074230000000     0.399670000000     0          
C15      C      0.314400000000     0.144200000000     0.518000000000     0          
C16      C      0.275700000000     0.156500000000     0.528100000000     0          
H8       H      0.255340000000     0.157260000000     0.508440000000     0          
C17      C      0.267300000000     0.167900000000     0.568000000000     0          
H9       H      0.241010000000     0.175670000000     0.575170000000     0          
C18      C      0.297800000000     0.167700000000     0.597300000000     0          
C19      C      0.337800000000     0.156700000000     0.587900000000     0          
H10      H      0.358150000000     0.156620000000     0.607610000000     0          
C20      C      0.346000000000     0.145400000000     0.546600000000     0          
H11      H      0.372360000000     0.138810000000     0.538730000000     0          
C21      C      0.287900000000     0.180800000000     0.640300000000     0          
C22      C      0.401100000000     0.163500000000     0.394100000000     0          
C23      C      0.419200000000     0.198400000000     0.411000000000     0          
H12      H      0.409250000000     0.208240000000     0.435610000000     0          
C24      C      0.450500000000     0.218500000000     0.393100000000     0          
C25      C      0.464300000000     0.258600000000     0.409100000000     0          
C26      C      0.466600000000     0.265100000000     0.451300000000     0          
H13      H      0.463030000000     0.243690000000     0.469380000000     0          
C27      C      0.474400000000     0.304100000000     0.465300000000     0          
H14      H      0.474770000000     0.309180000000     0.493120000000     0          
C28      C      0.481600000000     0.335100000000     0.438500000000     0          
C29      C      0.481800000000     0.328600000000     0.396900000000     0          
H15      H      0.487990000000     0.349630000000     0.379030000000     0          
C30      C      0.472800000000     0.290400000000     0.382400000000     0          
H16      H      0.472340000000     0.285710000000     0.354530000000     0          
C31      C      0.488000000000     0.377900000000     0.454600000000     0          
O5       O      0.071750000000     0.994160000000     0.524290000000     0          
O7       O      0.315450000000     0.182230000000     0.666710000000     0          
O8       O      0.251070000000     0.189850000000     0.645190000000     0          
O9       O      0.507700000000     0.402490000000     0.431860000000     0          
O10      O      0.471620000000     0.385340000000     0.487790000000     0          
Zr1      Zr     0.065820000000     0.020120000000     0.461780000000     0          
O12      O      0.024720000000     0.048430000000     0.498620000000     0          
Zr2      Zr     0.025230000000     0.032220000000     0.559350000000     0          
C32      C      0.106300000000     0.146000000000     0.581700000000     0          
H17      H      0.086660000000     0.134670000000     0.598630000000     0          
C33      C      0.118000000000     0.126600000000     0.546800000000     0          
C34      C      0.100500000000     0.086100000000     0.536000000000     0          
C35      C      0.124400000000     0.182900000000     0.591200000000     0          
H18      H      0.119620000000     0.194750000000     0.616390000000     0          
C36      C      0.149300000000     0.202000000000     0.564000000000     0          
H19      H      0.158260000000     0.228310000000     0.569170000000     0          
C37      C      0.161200000000     0.182400000000     0.528500000000     0          
H20      H      0.179930000000     0.194130000000     0.510870000000     0          
C38      C      0.144500000000     0.145000000000     0.520500000000     0          
H21      H      0.151310000000     0.131830000000     0.496400000000     0          
O14      O      0.101400000000     0.072300000000     0.501100000000     0          
C39?     C      0.156700000000     0.009900000000     0.491900000000     0          
C40?     C      0.192800000000     0.037200000000     0.483600000000     0          
C41?     C      0.226400000000     0.033700000000     0.508700000000     0          
H22?     H      0.225430000000     0.016920000000     0.531520000000     0          
C42?     C      0.261600000000     0.055400000000     0.499600000000     0          
H23?     H      0.284370000000     0.052580000000     0.516110000000     0          
C43?     C      0.263100000000     0.080900000000     0.466600000000     0          
C44?     C      0.227800000000     0.085000000000     0.442600000000     0          
H24?     H      0.227210000000     0.103840000000     0.421530000000     0          
C45?     C      0.193700000000     0.060900000000     0.450400000000     0          
H25?     H      0.171740000000     0.061300000000     0.432630000000     0          
O15?     O      0.156300000000     0.985000000000     0.522400000000     0          
O16?     O      0.129000000000     0.005600000000     0.463900000000     0          
O17?     O      0.083200000000     0.001000000000     0.399700000000     0          
O18?     O      0.083700000000     0.065800000000     0.562400000000     0          
O6       O      0.035340000000     0.964660000000     0.464660000000     0          
O11      O      0.960780000000     0.039220000000     0.539220000000     0          
O3       O      0.293300000000     0.217600000000     0.866000000000     0          
C8       C      0.269900000000     0.182900000000     0.872600000000     0          
H5       H      0.278450000000     0.166750000000     0.894170000000     0          
C9       C      0.146200000000     0.948200000000     0.797300000000     0          
C10      C      0.117500000000     0.925100000000     0.775300000000     0          
C11      C      0.098900000000     0.892400000000     0.794300000000     0          
H6       H      0.079400000000     0.877550000000     0.780120000000     0          
C12      C      0.108400000000     0.880900000000     0.834000000000     0          
C13      C      0.139000000000     0.902700000000     0.854900000000     0          
C14      C      0.156300000000     0.935800000000     0.836200000000     0          
H7       H      0.175770000000     0.950670000000     0.850330000000     0          
C15      C      0.105800000000     0.935600000000     0.732000000000     0          
C16      C      0.093500000000     0.974300000000     0.721900000000     0          
H8       H      0.092740000000     0.994660000000     0.741560000000     0          
C17      C      0.082100000000     0.982700000000     0.682000000000     0          
H9       H      0.074330000000     0.008990000000     0.674830000000     0          
C18      C      0.082300000000     0.952200000000     0.652700000000     0          
C19      C      0.093300000000     0.912200000000     0.662100000000     0          
H10      H      0.093380000000     0.891850000000     0.642390000000     0          
C20      C      0.104600000000     0.904000000000     0.703400000000     0          
H11      H      0.111190000000     0.877640000000     0.711270000000     0          
C21      C      0.069200000000     0.962100000000     0.609700000000     0          
C22      C      0.086500000000     0.848900000000     0.855900000000     0          
C23      C      0.051600000000     0.830800000000     0.839000000000     0          
H12      H      0.041760000000     0.840750000000     0.814390000000     0          
C24      C      0.031500000000     0.799500000000     0.856900000000     0          
C25      C      0.991400000000     0.785700000000     0.840900000000     0          
C26      C      0.984900000000     0.783400000000     0.798700000000     0          
H13      H      0.006310000000     0.786970000000     0.780620000000     0          
C27      C      0.945900000000     0.775600000000     0.784700000000     0          
H14      H      0.940820000000     0.775230000000     0.756880000000     0          
C28      C      0.914900000000     0.768400000000     0.811500000000     0          
C29      C      0.921400000000     0.768200000000     0.853100000000     0          
H15      H      0.900370000000     0.762010000000     0.870970000000     0          
C30      C      0.959600000000     0.777200000000     0.867600000000     0          
H16      H      0.964290000000     0.777660000000     0.895470000000     0          
C31      C      0.872100000000     0.762000000000     0.795400000000     0          
O5       O      0.255840000000     0.178250000000     0.725710000000     0          
O7       O      0.067770000000     0.934550000000     0.583290000000     0          
O8       O      0.060150000000     0.998930000000     0.604810000000     0          
O9       O      0.847510000000     0.742300000000     0.818140000000     0          
O10      O      0.864660000000     0.778380000000     0.762210000000     0          
Zr1      Zr     0.229880000000     0.184180000000     0.788220000000     0          
O12      O      0.201570000000     0.225280000000     0.751380000000     0          
Zr2      Zr     0.217780000000     0.224770000000     0.690650000000     0          
C32      C      0.104000000000     0.143700000000     0.668300000000     0          
H17      H      0.115330000000     0.163340000000     0.651370000000     0          
C33      C      0.123400000000     0.132000000000     0.703200000000     0          
C34      C      0.163900000000     0.149500000000     0.714000000000     0          
C35      C      0.067100000000     0.125600000000     0.658800000000     0          
H18      H      0.055250000000     0.130380000000     0.633610000000     0          
C36      C      0.048000000000     0.100700000000     0.686000000000     0          
H19      H      0.021690000000     0.091740000000     0.680830000000     0          
C37      C      0.067600000000     0.088800000000     0.721500000000     0          
H20      H      0.055870000000     0.070070000000     0.739130000000     0          
C38      C      0.105000000000     0.105500000000     0.729500000000     0          
H21      H      0.118170000000     0.098690000000     0.753600000000     0          
O14      O      0.177700000000     0.148600000000     0.748900000000     0          
C39?     C      0.240100000000     0.093300000000     0.758100000000     0          
C40?     C      0.212800000000     0.057200000000     0.766400000000     0          
C41?     C      0.216300000000     0.023600000000     0.741300000000     0          
H22?     H      0.233080000000     0.024570000000     0.718480000000     0          
C42?     C      0.194600000000     0.988400000000     0.750400000000     0          
H23?     H      0.197420000000     0.965630000000     0.733890000000     0          
C43?     C      0.169100000000     0.986900000000     0.783400000000     0          
C44?     C      0.165000000000     0.022200000000     0.807400000000     0          
H24?     H      0.146160000000     0.022790000000     0.828470000000     0          
C45?     C      0.189100000000     0.056300000000     0.799600000000     0          
H25?     H      0.188700000000     0.078260000000     0.817370000000     0          
O15?     O      0.265000000000     0.093700000000     0.727600000000     0          
O16?     O      0.244400000000     0.121000000000     0.786100000000     0          
O17?     O      0.249000000000     0.166800000000     0.850300000000     0          
O18?     O      0.184200000000     0.166300000000     0.687600000000     0          
O6       O      0.285340000000     0.214660000000     0.785340000000     0          
O11      O      0.210780000000     0.289220000000     0.710780000000     0          
O3       O      0.532400000000     0.543300000000     0.616000000000     0          
C8       C      0.567100000000     0.519900000000     0.622600000000     0          
H5       H      0.583250000000     0.528450000000     0.644170000000     0          
C9       C      0.801800000000     0.396200000000     0.547300000000     0          
C10      C      0.824900000000     0.367500000000     0.525300000000     0          
C11      C      0.857600000000     0.348900000000     0.544300000000     0          
H6       H      0.872450000000     0.329400000000     0.530120000000     0          
C12      C      0.869100000000     0.358400000000     0.584000000000     0          
C13      C      0.847300000000     0.389000000000     0.604900000000     0          
C14      C      0.814200000000     0.406300000000     0.586200000000     0          
H7       H      0.799330000000     0.425770000000     0.600330000000     0          
C15      C      0.814400000000     0.355800000000     0.482000000000     0          
C16      C      0.775700000000     0.343500000000     0.471900000000     0          
H8       H      0.755340000000     0.342740000000     0.491560000000     0          
C17      C      0.767300000000     0.332100000000     0.432000000000     0          
H9       H      0.741010000000     0.324330000000     0.424830000000     0          
C18      C      0.797800000000     0.332300000000     0.402700000000     0          
C19      C      0.837800000000     0.343300000000     0.412100000000     0          
H10      H      0.858150000000     0.343380000000     0.392390000000     0          
C20      C      0.846000000000     0.354600000000     0.453400000000     0          
H11      H      0.872360000000     0.361190000000     0.461270000000     0          
C21      C      0.787900000000     0.319200000000     0.359700000000     0          
C22      C      0.901100000000     0.336500000000     0.605900000000     0          
C23      C      0.919200000000     0.301600000000     0.589000000000     0          
H12      H      0.909250000000     0.291760000000     0.564390000000     0          
C24      C      0.950500000000     0.281500000000     0.606900000000     0          
C25      C      0.964300000000     0.241400000000     0.590900000000     0          
C26      C      0.966600000000     0.234900000000     0.548700000000     0          
H13      H      0.963030000000     0.256310000000     0.530620000000     0          
C27      C      0.974400000000     0.195900000000     0.534700000000     0          
H14      H      0.974770000000     0.190820000000     0.506880000000     0          
C28      C      0.981600000000     0.164900000000     0.561500000000     0          
C29      C      0.981800000000     0.171400000000     0.603100000000     0          
H15      H      0.987990000000     0.150370000000     0.620970000000     0          
C30      C      0.972800000000     0.209600000000     0.617600000000     0          
H16      H      0.972340000000     0.214290000000     0.645470000000     0          
C31      C      0.988000000000     0.122100000000     0.545400000000     0          
O5       O      0.571750000000     0.505840000000     0.475710000000     0          
O7       O      0.815450000000     0.317770000000     0.333290000000     0          
O8       O      0.751070000000     0.310150000000     0.354810000000     0          
O9       O      0.007700000000     0.097510000000     0.568140000000     0          
O10      O      0.971620000000     0.114660000000     0.512210000000     0          
Zr1      Zr     0.565820000000     0.479880000000     0.538220000000     0          
O12      O      0.524720000000     0.451570000000     0.501380000000     0          
Zr2      Zr     0.525230000000     0.467780000000     0.440650000000     0          
C32      C      0.606300000000     0.354000000000     0.418300000000     0          
H17      H      0.586660000000     0.365330000000     0.401370000000     0          
C33      C      0.618000000000     0.373400000000     0.453200000000     0          
C34      C      0.600500000000     0.413900000000     0.464000000000     0          
C35      C      0.624400000000     0.317100000000     0.408800000000     0          
H18      H      0.619620000000     0.305250000000     0.383610000000     0          
C36      C      0.649300000000     0.298000000000     0.436000000000     0          
H19      H      0.658260000000     0.271690000000     0.430830000000     0          
C37      C      0.661200000000     0.317600000000     0.471500000000     0          
H20      H      0.679930000000     0.305870000000     0.489130000000     0          
C38      C      0.644500000000     0.355000000000     0.479500000000     0          
H21      H      0.651310000000     0.368170000000     0.503600000000     0          
O14      O      0.601400000000     0.427700000000     0.498900000000     0          
C39?     C      0.656700000000     0.490100000000     0.508100000000     0          
C40?     C      0.692800000000     0.462800000000     0.516400000000     0          
C41?     C      0.726400000000     0.466300000000     0.491300000000     0          
H22?     H      0.725430000000     0.483080000000     0.468480000000     0          
C42?     C      0.761600000000     0.444600000000     0.500400000000     0          
H23?     H      0.784370000000     0.447420000000     0.483890000000     0          
C43?     C      0.763100000000     0.419100000000     0.533400000000     0          
C44?     C      0.727800000000     0.415000000000     0.557400000000     0          
H24?     H      0.727210000000     0.396160000000     0.578470000000     0          
C45?     C      0.693700000000     0.439100000000     0.549600000000     0          
H25?     H      0.671740000000     0.438700000000     0.567370000000     0          
O15?     O      0.656300000000     0.515000000000     0.477600000000     0          
O16?     O      0.629000000000     0.494400000000     0.536100000000     0          
O17?     O      0.583200000000     0.499000000000     0.600300000000     0          
O18?     O      0.583700000000     0.434200000000     0.437600000000     0          
O6       O      0.535340000000     0.535340000000     0.535340000000     0          
O11      O      0.460780000000     0.460780000000     0.460780000000     0          
O3       O      0.206700000000     0.782400000000     0.366000000000     0          
C8       C      0.230100000000     0.817100000000     0.372600000000     0          
H5       H      0.221550000000     0.833250000000     0.394170000000     0          
C9       C      0.353800000000     0.051800000000     0.297300000000     0          
C10      C      0.382500000000     0.074900000000     0.275300000000     0          
C11      C      0.401100000000     0.107600000000     0.294300000000     0          
H6       H      0.420600000000     0.122450000000     0.280120000000     0          
C12      C      0.391600000000     0.119100000000     0.334000000000     0          
C13      C      0.361000000000     0.097300000000     0.354900000000     0          
C14      C      0.343700000000     0.064200000000     0.336200000000     0          
H7       H      0.324230000000     0.049330000000     0.350330000000     0          
C15      C      0.394200000000     0.064400000000     0.232000000000     0          
C16      C      0.406500000000     0.025700000000     0.221900000000     0          
H8       H      0.407260000000     0.005340000000     0.241560000000     0          
C17      C      0.417900000000     0.017300000000     0.182000000000     0          
H9       H      0.425670000000     0.991010000000     0.174830000000     0          
C18      C      0.417700000000     0.047800000000     0.152700000000     0          
C19      C      0.406700000000     0.087800000000     0.162100000000     0          
H10      H      0.406620000000     0.108150000000     0.142390000000     0          
C20      C      0.395400000000     0.096000000000     0.203400000000     0          
H11      H      0.388810000000     0.122360000000     0.211270000000     0          
C21      C      0.430800000000     0.037900000000     0.109700000000     0          
C22      C      0.413500000000     0.151100000000     0.355900000000     0          
C23      C      0.448400000000     0.169200000000     0.339000000000     0          
H12      H      0.458240000000     0.159250000000     0.314390000000     0          
C24      C      0.468500000000     0.200500000000     0.356900000000     0          
C25      C      0.508600000000     0.214300000000     0.340900000000     0          
C26      C      0.515100000000     0.216600000000     0.298700000000     0          
H13      H      0.493690000000     0.213030000000     0.280620000000     0          
C27      C      0.554100000000     0.224400000000     0.284700000000     0          
H14      H      0.559180000000     0.224770000000     0.256880000000     0          
C28      C      0.585100000000     0.231600000000     0.311500000000     0          
C29      C      0.578600000000     0.231800000000     0.353100000000     0          
H15      H      0.599630000000     0.237990000000     0.370970000000     0          
C30      C      0.540400000000     0.222800000000     0.367600000000     0          
H16      H      0.535710000000     0.222340000000     0.395470000000     0          
C31      C      0.627900000000     0.238000000000     0.295400000000     0          
O5       O      0.244160000000     0.821750000000     0.225710000000     0          
O7       O      0.432230000000     0.065450000000     0.083290000000     0          
O8       O      0.439850000000     0.001070000000     0.104810000000     0          
O9       O      0.652490000000     0.257700000000     0.318140000000     0          
O10      O      0.635340000000     0.221620000000     0.262210000000     0          
Zr1      Zr     0.270120000000     0.815820000000     0.288220000000     0          
O12      O      0.298430000000     0.774720000000     0.251380000000     0          
Zr2      Zr     0.282220000000     0.775230000000     0.190650000000     0          
C32      C      0.396000000000     0.856300000000     0.168300000000     0          
H17      H      0.384670000000     0.836660000000     0.151370000000     0          
C33      C      0.376600000000     0.868000000000     0.203200000000     0          
C34      C      0.336100000000     0.850500000000     0.214000000000     0          
C35      C      0.432900000000     0.874400000000     0.158800000000     0          
H18      H      0.444750000000     0.869620000000     0.133610000000     0          
C36      C      0.452000000000     0.899300000000     0.186000000000     0          
H19      H      0.478310000000     0.908260000000     0.180830000000     0          
C37      C      0.432400000000     0.911200000000     0.221500000000     0          
H20      H      0.444130000000     0.929930000000     0.239130000000     0          
C38      C      0.395000000000     0.894500000000     0.229500000000     0          
H21      H      0.381830000000     0.901310000000     0.253600000000     0          
O14      O      0.322300000000     0.851400000000     0.248900000000     0          
C39?     C      0.259900000000     0.906700000000     0.258100000000     0          
C40?     C      0.287200000000     0.942800000000     0.266400000000     0          
C41?     C      0.283700000000     0.976400000000     0.241300000000     0          
H22?     H      0.266920000000     0.975430000000     0.218480000000     0          
C42?     C      0.305400000000     0.011600000000     0.250400000000     0          
H23?     H      0.302580000000     0.034370000000     0.233890000000     0          
C43?     C      0.330900000000     0.013100000000     0.283400000000     0          
C44?     C      0.335000000000     0.977800000000     0.307400000000     0          
H24?     H      0.353840000000     0.977210000000     0.328470000000     0          
C45?     C      0.310900000000     0.943700000000     0.299600000000     0          
H25?     H      0.311300000000     0.921740000000     0.317370000000     0          
O15?     O      0.235000000000     0.906300000000     0.227600000000     0          
O16?     O      0.255600000000     0.879000000000     0.286100000000     0          
O17?     O      0.251000000000     0.833200000000     0.350300000000     0          
O18?     O      0.315800000000     0.833700000000     0.187600000000     0          
O6       O      0.214660000000     0.785340000000     0.285340000000     0          
O11      O      0.289220000000     0.710780000000     0.210780000000     0          
O3       O      0.967600000000     0.456700000000     0.116000000000     0          
C8       C      0.932900000000     0.480100000000     0.122600000000     0          
H5       H      0.916750000000     0.471550000000     0.144170000000     0          
C9       C      0.698200000000     0.603800000000     0.047300000000     0          
C10      C      0.675100000000     0.632500000000     0.025300000000     0          
C11      C      0.642400000000     0.651100000000     0.044300000000     0          
H6       H      0.627550000000     0.670600000000     0.030120000000     0          
C12      C      0.630900000000     0.641600000000     0.084000000000     0          
C13      C      0.652700000000     0.611000000000     0.104900000000     0          
C14      C      0.685800000000     0.593700000000     0.086200000000     0          
H7       H      0.700670000000     0.574230000000     0.100330000000     0          
C15      C      0.685600000000     0.644200000000     0.982000000000     0          
C16      C      0.724300000000     0.656500000000     0.971900000000     0          
H8       H      0.744660000000     0.657260000000     0.991560000000     0          
C17      C      0.732700000000     0.667900000000     0.932000000000     0          
H9       H      0.758990000000     0.675670000000     0.924830000000     0          
C18      C      0.702200000000     0.667700000000     0.902700000000     0          
C19      C      0.662200000000     0.656700000000     0.912100000000     0          
H10      H      0.641850000000     0.656620000000     0.892390000000     0          
C20      C      0.654000000000     0.645400000000     0.953400000000     0          
H11      H      0.627640000000     0.638810000000     0.961270000000     0          
C21      C      0.712100000000     0.680800000000     0.859700000000     0          
C22      C      0.598900000000     0.663500000000     0.105900000000     0          
C23      C      0.580800000000     0.698400000000     0.089000000000     0          
H12      H      0.590750000000     0.708240000000     0.064390000000     0          
C24      C      0.549500000000     0.718500000000     0.106900000000     0          
C25      C      0.535700000000     0.758600000000     0.090900000000     0          
C26      C      0.533400000000     0.765100000000     0.048700000000     0          
H13      H      0.536970000000     0.743690000000     0.030620000000     0          
C27      C      0.525600000000     0.804100000000     0.034700000000     0          
H14      H      0.525230000000     0.809180000000     0.006880000000     0          
C28      C      0.518400000000     0.835100000000     0.061500000000     0          
C29      C      0.518200000000     0.828600000000     0.103100000000     0          
H15      H      0.512010000000     0.849630000000     0.120970000000     0          
C30      C      0.527200000000     0.790400000000     0.117600000000     0          
H16      H      0.527660000000     0.785710000000     0.145470000000     0          
C31      C      0.512000000000     0.877900000000     0.045400000000     0          
O5       O      0.928250000000     0.494160000000     0.975710000000     0          
O7       O      0.684550000000     0.682230000000     0.833290000000     0          
O8       O      0.748930000000     0.689850000000     0.854810000000     0          
O9       O      0.492300000000     0.902490000000     0.068140000000     0          
O10      O      0.528380000000     0.885340000000     0.012210000000     0          
Zr1      Zr     0.934180000000     0.520120000000     0.038220000000     0          
O12      O      0.975280000000     0.548430000000     0.001380000000     0          
Zr2      Zr     0.974770000000     0.532220000000     0.940650000000     0          
C32      C      0.893700000000     0.646000000000     0.918300000000     0          
H17      H      0.913340000000     0.634670000000     0.901370000000     0          
C33      C      0.882000000000     0.626600000000     0.953200000000     0          
C34      C      0.899500000000     0.586100000000     0.964000000000     0          
C35      C      0.875600000000     0.682900000000     0.908800000000     0          
H18      H      0.880380000000     0.694750000000     0.883610000000     0          
C36      C      0.850700000000     0.702000000000     0.936000000000     0          
H19      H      0.841740000000     0.728310000000     0.930830000000     0          
C37      C      0.838800000000     0.682400000000     0.971500000000     0          
H20      H      0.820070000000     0.694130000000     0.989130000000     0          
C38      C      0.855500000000     0.645000000000     0.979500000000     0          
H21      H      0.848690000000     0.631830000000     0.003600000000     0          
O14      O      0.898600000000     0.572300000000     0.998900000000     0          
C39?     C      0.843300000000     0.509900000000     0.008100000000     0          
C40?     C      0.807200000000     0.537200000000     0.016400000000     0          
C41?     C      0.773600000000     0.533700000000     0.991300000000     0          
H22?     H      0.774570000000     0.516920000000     0.968480000000     0          
C42?     C      0.738400000000     0.555400000000     0.000400000000     0          
H23?     H      0.715630000000     0.552580000000     0.983890000000     0          
C43?     C      0.736900000000     0.580900000000     0.033400000000     0          
C44?     C      0.772200000000     0.585000000000     0.057400000000     0          
H24?     H      0.772790000000     0.603840000000     0.078470000000     0          
C45?     C      0.806300000000     0.560900000000     0.049600000000     0          
H25?     H      0.828260000000     0.561300000000     0.067370000000     0          
O15?     O      0.843700000000     0.485000000000     0.977600000000     0          
O16?     O      0.871000000000     0.505600000000     0.036100000000     0          
O17?     O      0.916800000000     0.501000000000     0.100300000000     0          
O18?     O      0.916300000000     0.565800000000     0.937600000000     0          
O6       O      0.964660000000     0.464660000000     0.035340000000     0          
O11      O      0.039220000000     0.539220000000     0.960780000000     0          
O3       O      0.134000000000     0.793300000000     0.282400000000     0          
C8       C      0.127400000000     0.769900000000     0.317100000000     0          
H5       H      0.105830000000     0.778450000000     0.333250000000     0          
C9       C      0.202700000000     0.646200000000     0.551800000000     0          
C10      C      0.224700000000     0.617500000000     0.574900000000     0          
C11      C      0.205700000000     0.598900000000     0.607600000000     0          
H6       H      0.219880000000     0.579400000000     0.622450000000     0          
C12      C      0.166000000000     0.608400000000     0.619100000000     0          
C13      C      0.145100000000     0.639000000000     0.597300000000     0          
C14      C      0.163800000000     0.656300000000     0.564200000000     0          
H7       H      0.149670000000     0.675770000000     0.549330000000     0          
C15      C      0.268000000000     0.605800000000     0.564400000000     0          
C16      C      0.278100000000     0.593500000000     0.525700000000     0          
H8       H      0.258440000000     0.592740000000     0.505340000000     0          
C17      C      0.318000000000     0.582100000000     0.517300000000     0          
H9       H      0.325170000000     0.574330000000     0.491010000000     0          
C18      C      0.347300000000     0.582300000000     0.547800000000     0          
C19      C      0.337900000000     0.593300000000     0.587800000000     0          
H10      H      0.357610000000     0.593380000000     0.608150000000     0          
C20      C      0.296600000000     0.604600000000     0.596000000000     0          
H11      H      0.288730000000     0.611190000000     0.622360000000     0          
C21      C      0.390300000000     0.569200000000     0.537900000000     0          
C22      C      0.144100000000     0.586500000000     0.651100000000     0          
C23      C      0.161000000000     0.551600000000     0.669200000000     0          
H12      H      0.185610000000     0.541760000000     0.659250000000     0          
C24      C      0.143100000000     0.531500000000     0.700500000000     0          
C25      C      0.159100000000     0.491400000000     0.714300000000     0          
C26      C      0.201300000000     0.484900000000     0.716600000000     0          
H13      H      0.219380000000     0.506310000000     0.713030000000     0          
C27      C      0.215300000000     0.445900000000     0.724400000000     0          
H14      H      0.243120000000     0.440820000000     0.724770000000     0          
C28      C      0.188500000000     0.414900000000     0.731600000000     0          
C29      C      0.146900000000     0.421400000000     0.731800000000     0          
H15      H      0.129030000000     0.400370000000     0.737990000000     0          
C30      C      0.132400000000     0.459600000000     0.722800000000     0          
H16      H      0.104530000000     0.464290000000     0.722340000000     0          
C31      C      0.204600000000     0.372100000000     0.738000000000     0          
O5       O      0.274290000000     0.755840000000     0.321750000000     0          
O7       O      0.416710000000     0.567770000000     0.565450000000     0          
O8       O      0.395190000000     0.560150000000     0.501070000000     0          
O9       O      0.181860000000     0.347510000000     0.757700000000     0          
O10      O      0.237790000000     0.364660000000     0.721620000000     0          
Zr1      Zr     0.211780000000     0.729880000000     0.315820000000     0          
O12      O      0.248620000000     0.701570000000     0.274720000000     0          
Zr2      Zr     0.309350000000     0.717780000000     0.275230000000     0          
C32      C      0.331700000000     0.604000000000     0.356300000000     0          
H17      H      0.348630000000     0.615330000000     0.336660000000     0          
C33      C      0.296800000000     0.623400000000     0.368000000000     0          
C34      C      0.286000000000     0.663900000000     0.350500000000     0          
C35      C      0.341200000000     0.567100000000     0.374400000000     0          
H18      H      0.366390000000     0.555250000000     0.369620000000     0          
C36      C      0.314000000000     0.548000000000     0.399300000000     0          
H19      H      0.319170000000     0.521690000000     0.408260000000     0          
C37      C      0.278500000000     0.567600000000     0.411200000000     0          
H20      H      0.260870000000     0.555870000000     0.429930000000     0          
C38      C      0.270500000000     0.605000000000     0.394500000000     0          
H21      H      0.246400000000     0.618170000000     0.401310000000     0          
O14      O      0.251100000000     0.677700000000     0.351400000000     0          
C39?     C      0.241900000000     0.740100000000     0.406700000000     0          
C40?     C      0.233600000000     0.712800000000     0.442800000000     0          
C41?     C      0.258700000000     0.716300000000     0.476400000000     0          
H22?     H      0.281520000000     0.733080000000     0.475430000000     0          
C42?     C      0.249600000000     0.694600000000     0.511600000000     0          
H23?     H      0.266110000000     0.697420000000     0.534370000000     0          
C43?     C      0.216600000000     0.669100000000     0.513100000000     0          
C44?     C      0.192600000000     0.665000000000     0.477800000000     0          
H24?     H      0.171530000000     0.646160000000     0.477210000000     0          
C45?     C      0.200400000000     0.689100000000     0.443700000000     0          
H25?     H      0.182630000000     0.688700000000     0.421740000000     0          
O15?     O      0.272400000000     0.765000000000     0.406300000000     0          
O16?     O      0.213900000000     0.744400000000     0.379000000000     0          
O17?     O      0.149700000000     0.749000000000     0.333200000000     0          
O18?     O      0.312400000000     0.684200000000     0.333700000000     0          
O3       O      0.956700000000     0.384000000000     0.032400000000     0          
C8       C      0.980100000000     0.377400000000     0.067100000000     0          
H5       H      0.971550000000     0.355830000000     0.083250000000     0          
C9       C      0.103800000000     0.452700000000     0.301800000000     0          
C10      C      0.132500000000     0.474700000000     0.324900000000     0          
C11      C      0.151100000000     0.455700000000     0.357600000000     0          
H6       H      0.170600000000     0.469880000000     0.372450000000     0          
C12      C      0.141600000000     0.416000000000     0.369100000000     0          
C13      C      0.111000000000     0.395100000000     0.347300000000     0          
C14      C      0.093700000000     0.413800000000     0.314200000000     0          
H7       H      0.074230000000     0.399670000000     0.299330000000     0          
C15      C      0.144200000000     0.518000000000     0.314400000000     0          
C16      C      0.156500000000     0.528100000000     0.275700000000     0          
H8       H      0.157260000000     0.508440000000     0.255340000000     0          
C17      C      0.167900000000     0.568000000000     0.267300000000     0          
H9       H      0.175670000000     0.575170000000     0.241010000000     0          
C18      C      0.167700000000     0.597300000000     0.297800000000     0          
C19      C      0.156700000000     0.587900000000     0.337800000000     0          
H10      H      0.156620000000     0.607610000000     0.358150000000     0          
C20      C      0.145400000000     0.546600000000     0.346000000000     0          
H11      H      0.138810000000     0.538730000000     0.372360000000     0          
C21      C      0.180800000000     0.640300000000     0.287900000000     0          
C22      C      0.163500000000     0.394100000000     0.401100000000     0          
C23      C      0.198400000000     0.411000000000     0.419200000000     0          
H12      H      0.208240000000     0.435610000000     0.409250000000     0          
C24      C      0.218500000000     0.393100000000     0.450500000000     0          
C25      C      0.258600000000     0.409100000000     0.464300000000     0          
C26      C      0.265100000000     0.451300000000     0.466600000000     0          
H13      H      0.243690000000     0.469380000000     0.463030000000     0          
C27      C      0.304100000000     0.465300000000     0.474400000000     0          
H14      H      0.309180000000     0.493120000000     0.474770000000     0          
C28      C      0.335100000000     0.438500000000     0.481600000000     0          
C29      C      0.328600000000     0.396900000000     0.481800000000     0          
H15      H      0.349630000000     0.379030000000     0.487990000000     0          
C30      C      0.290400000000     0.382400000000     0.472800000000     0          
H16      H      0.285710000000     0.354530000000     0.472340000000     0          
C31      C      0.377900000000     0.454600000000     0.488000000000     0          
O5       O      0.994160000000     0.524290000000     0.071750000000     0          
O7       O      0.182230000000     0.666710000000     0.315450000000     0          
O8       O      0.189850000000     0.645190000000     0.251070000000     0          
O9       O      0.402490000000     0.431860000000     0.507700000000     0          
O10      O      0.385340000000     0.487790000000     0.471620000000     0          
Zr1      Zr     0.020120000000     0.461780000000     0.065820000000     0          
O12      O      0.048430000000     0.498620000000     0.024720000000     0          
Zr2      Zr     0.032220000000     0.559350000000     0.025230000000     0          
C32      C      0.146000000000     0.581700000000     0.106300000000     0          
H17      H      0.134670000000     0.598630000000     0.086660000000     0          
C33      C      0.126600000000     0.546800000000     0.118000000000     0          
C34      C      0.086100000000     0.536000000000     0.100500000000     0          
C35      C      0.182900000000     0.591200000000     0.124400000000     0          
H18      H      0.194750000000     0.616390000000     0.119620000000     0          
C36      C      0.202000000000     0.564000000000     0.149300000000     0          
H19      H      0.228310000000     0.569170000000     0.158260000000     0          
C37      C      0.182400000000     0.528500000000     0.161200000000     0          
H20      H      0.194130000000     0.510870000000     0.179930000000     0          
C38      C      0.145000000000     0.520500000000     0.144500000000     0          
H21      H      0.131830000000     0.496400000000     0.151310000000     0          
O14      O      0.072300000000     0.501100000000     0.101400000000     0          
C39?     C      0.009900000000     0.491900000000     0.156700000000     0          
C40?     C      0.037200000000     0.483600000000     0.192800000000     0          
C41?     C      0.033700000000     0.508700000000     0.226400000000     0          
H22?     H      0.016920000000     0.531520000000     0.225430000000     0          
C42?     C      0.055400000000     0.499600000000     0.261600000000     0          
H23?     H      0.052580000000     0.516110000000     0.284370000000     0          
C43?     C      0.080900000000     0.466600000000     0.263100000000     0          
C44?     C      0.085000000000     0.442600000000     0.227800000000     0          
H24?     H      0.103840000000     0.421530000000     0.227210000000     0          
C45?     C      0.060900000000     0.450400000000     0.193700000000     0          
H25?     H      0.061300000000     0.432630000000     0.171740000000     0          
O15?     O      0.985000000000     0.522400000000     0.156300000000     0          
O16?     O      0.005600000000     0.463900000000     0.129000000000     0          
O17?     O      0.001000000000     0.399700000000     0.083200000000     0          
O18?     O      0.065800000000     0.562400000000     0.083700000000     0          
O3       O      0.366000000000     0.206700000000     0.782400000000     0          
C8       C      0.372600000000     0.230100000000     0.817100000000     0          
H5       H      0.394170000000     0.221550000000     0.833250000000     0          
C9       C      0.297300000000     0.353800000000     0.051800000000     0          
C10      C      0.275300000000     0.382500000000     0.074900000000     0          
C11      C      0.294300000000     0.401100000000     0.107600000000     0          
H6       H      0.280120000000     0.420600000000     0.122450000000     0          
C12      C      0.334000000000     0.391600000000     0.119100000000     0          
C13      C      0.354900000000     0.361000000000     0.097300000000     0          
C14      C      0.336200000000     0.343700000000     0.064200000000     0          
H7       H      0.350330000000     0.324230000000     0.049330000000     0          
C15      C      0.232000000000     0.394200000000     0.064400000000     0          
C16      C      0.221900000000     0.406500000000     0.025700000000     0          
H8       H      0.241560000000     0.407260000000     0.005340000000     0          
C17      C      0.182000000000     0.417900000000     0.017300000000     0          
H9       H      0.174830000000     0.425670000000     0.991010000000     0          
C18      C      0.152700000000     0.417700000000     0.047800000000     0          
C19      C      0.162100000000     0.406700000000     0.087800000000     0          
H10      H      0.142390000000     0.406620000000     0.108150000000     0          
C20      C      0.203400000000     0.395400000000     0.096000000000     0          
H11      H      0.211270000000     0.388810000000     0.122360000000     0          
C21      C      0.109700000000     0.430800000000     0.037900000000     0          
C22      C      0.355900000000     0.413500000000     0.151100000000     0          
C23      C      0.339000000000     0.448400000000     0.169200000000     0          
H12      H      0.314390000000     0.458240000000     0.159250000000     0          
C24      C      0.356900000000     0.468500000000     0.200500000000     0          
C25      C      0.340900000000     0.508600000000     0.214300000000     0          
C26      C      0.298700000000     0.515100000000     0.216600000000     0          
H13      H      0.280620000000     0.493690000000     0.213030000000     0          
C27      C      0.284700000000     0.554100000000     0.224400000000     0          
H14      H      0.256880000000     0.559180000000     0.224770000000     0          
C28      C      0.311500000000     0.585100000000     0.231600000000     0          
C29      C      0.353100000000     0.578600000000     0.231800000000     0          
H15      H      0.370970000000     0.599630000000     0.237990000000     0          
C30      C      0.367600000000     0.540400000000     0.222800000000     0          
H16      H      0.395470000000     0.535710000000     0.222340000000     0          
C31      C      0.295400000000     0.627900000000     0.238000000000     0          
O5       O      0.225710000000     0.244160000000     0.821750000000     0          
O7       O      0.083290000000     0.432230000000     0.065450000000     0          
O8       O      0.104810000000     0.439850000000     0.001070000000     0          
O9       O      0.318140000000     0.652490000000     0.257700000000     0          
O10      O      0.262210000000     0.635340000000     0.221620000000     0          
Zr1      Zr     0.288220000000     0.270120000000     0.815820000000     0          
O12      O      0.251380000000     0.298430000000     0.774720000000     0          
Zr2      Zr     0.190650000000     0.282220000000     0.775230000000     0          
C32      C      0.168300000000     0.396000000000     0.856300000000     0          
H17      H      0.151370000000     0.384670000000     0.836660000000     0          
C33      C      0.203200000000     0.376600000000     0.868000000000     0          
C34      C      0.214000000000     0.336100000000     0.850500000000     0          
C35      C      0.158800000000     0.432900000000     0.874400000000     0          
H18      H      0.133610000000     0.444750000000     0.869620000000     0          
C36      C      0.186000000000     0.452000000000     0.899300000000     0          
H19      H      0.180830000000     0.478310000000     0.908260000000     0          
C37      C      0.221500000000     0.432400000000     0.911200000000     0          
H20      H      0.239130000000     0.444130000000     0.929930000000     0          
C38      C      0.229500000000     0.395000000000     0.894500000000     0          
H21      H      0.253600000000     0.381830000000     0.901310000000     0          
O14      O      0.248900000000     0.322300000000     0.851400000000     0          
C39?     C      0.258100000000     0.259900000000     0.906700000000     0          
C40?     C      0.266400000000     0.287200000000     0.942800000000     0          
C41?     C      0.241300000000     0.283700000000     0.976400000000     0          
H22?     H      0.218480000000     0.266920000000     0.975430000000     0          
C42?     C      0.250400000000     0.305400000000     0.011600000000     0          
H23?     H      0.233890000000     0.302580000000     0.034370000000     0          
C43?     C      0.283400000000     0.330900000000     0.013100000000     0          
C44?     C      0.307400000000     0.335000000000     0.977800000000     0          
H24?     H      0.328470000000     0.353840000000     0.977210000000     0          
C45?     C      0.299600000000     0.310900000000     0.943700000000     0          
H25?     H      0.317370000000     0.311300000000     0.921740000000     0          
O15?     O      0.227600000000     0.235000000000     0.906300000000     0          
O16?     O      0.286100000000     0.255600000000     0.879000000000     0          
O17?     O      0.350300000000     0.251000000000     0.833200000000     0          
O18?     O      0.187600000000     0.315800000000     0.833700000000     0          
O3       O      0.543300000000     0.616000000000     0.532400000000     0          
C8       C      0.519900000000     0.622600000000     0.567100000000     0          
H5       H      0.528450000000     0.644170000000     0.583250000000     0          
C9       C      0.396200000000     0.547300000000     0.801800000000     0          
C10      C      0.367500000000     0.525300000000     0.824900000000     0          
C11      C      0.348900000000     0.544300000000     0.857600000000     0          
H6       H      0.329400000000     0.530120000000     0.872450000000     0          
C12      C      0.358400000000     0.584000000000     0.869100000000     0          
C13      C      0.389000000000     0.604900000000     0.847300000000     0          
C14      C      0.406300000000     0.586200000000     0.814200000000     0          
H7       H      0.425770000000     0.600330000000     0.799330000000     0          
C15      C      0.355800000000     0.482000000000     0.814400000000     0          
C16      C      0.343500000000     0.471900000000     0.775700000000     0          
H8       H      0.342740000000     0.491560000000     0.755340000000     0          
C17      C      0.332100000000     0.432000000000     0.767300000000     0          
H9       H      0.324330000000     0.424830000000     0.741010000000     0          
C18      C      0.332300000000     0.402700000000     0.797800000000     0          
C19      C      0.343300000000     0.412100000000     0.837800000000     0          
H10      H      0.343380000000     0.392390000000     0.858150000000     0          
C20      C      0.354600000000     0.453400000000     0.846000000000     0          
H11      H      0.361190000000     0.461270000000     0.872360000000     0          
C21      C      0.319200000000     0.359700000000     0.787900000000     0          
C22      C      0.336500000000     0.605900000000     0.901100000000     0          
C23      C      0.301600000000     0.589000000000     0.919200000000     0          
H12      H      0.291760000000     0.564390000000     0.909250000000     0          
C24      C      0.281500000000     0.606900000000     0.950500000000     0          
C25      C      0.241400000000     0.590900000000     0.964300000000     0          
C26      C      0.234900000000     0.548700000000     0.966600000000     0          
H13      H      0.256310000000     0.530620000000     0.963030000000     0          
C27      C      0.195900000000     0.534700000000     0.974400000000     0          
H14      H      0.190820000000     0.506880000000     0.974770000000     0          
C28      C      0.164900000000     0.561500000000     0.981600000000     0          
C29      C      0.171400000000     0.603100000000     0.981800000000     0          
H15      H      0.150370000000     0.620970000000     0.987990000000     0          
C30      C      0.209600000000     0.617600000000     0.972800000000     0          
H16      H      0.214290000000     0.645470000000     0.972340000000     0          
C31      C      0.122100000000     0.545400000000     0.988000000000     0          
O5       O      0.505840000000     0.475710000000     0.571750000000     0          
O7       O      0.317770000000     0.333290000000     0.815450000000     0          
O8       O      0.310150000000     0.354810000000     0.751070000000     0          
O9       O      0.097510000000     0.568140000000     0.007700000000     0          
O10      O      0.114660000000     0.512210000000     0.971620000000     0          
Zr1      Zr     0.479880000000     0.538220000000     0.565820000000     0          
O12      O      0.451570000000     0.501380000000     0.524720000000     0          
Zr2      Zr     0.467780000000     0.440650000000     0.525230000000     0          
C32      C      0.354000000000     0.418300000000     0.606300000000     0          
H17      H      0.365330000000     0.401370000000     0.586660000000     0          
C33      C      0.373400000000     0.453200000000     0.618000000000     0          
C34      C      0.413900000000     0.464000000000     0.600500000000     0          
C35      C      0.317100000000     0.408800000000     0.624400000000     0          
H18      H      0.305250000000     0.383610000000     0.619620000000     0          
C36      C      0.298000000000     0.436000000000     0.649300000000     0          
H19      H      0.271690000000     0.430830000000     0.658260000000     0          
C37      C      0.317600000000     0.471500000000     0.661200000000     0          
H20      H      0.305870000000     0.489130000000     0.679930000000     0          
C38      C      0.355000000000     0.479500000000     0.644500000000     0          
H21      H      0.368170000000     0.503600000000     0.651310000000     0          
O14      O      0.427700000000     0.498900000000     0.601400000000     0          
C39?     C      0.490100000000     0.508100000000     0.656700000000     0          
C40?     C      0.462800000000     0.516400000000     0.692800000000     0          
C41?     C      0.466300000000     0.491300000000     0.726400000000     0          
H22?     H      0.483080000000     0.468480000000     0.725430000000     0          
C42?     C      0.444600000000     0.500400000000     0.761600000000     0          
H23?     H      0.447420000000     0.483890000000     0.784370000000     0          
C43?     C      0.419100000000     0.533400000000     0.763100000000     0          
C44?     C      0.415000000000     0.557400000000     0.727800000000     0          
H24?     H      0.396160000000     0.578470000000     0.727210000000     0          
C45?     C      0.439100000000     0.549600000000     0.693700000000     0          
H25?     H      0.438700000000     0.567370000000     0.671740000000     0          
O15?     O      0.515000000000     0.477600000000     0.656300000000     0          
O16?     O      0.494400000000     0.536100000000     0.629000000000     0          
O17?     O      0.499000000000     0.600300000000     0.583200000000     0          
O18?     O      0.434200000000     0.437600000000     0.583700000000     0          
O3       O      0.634000000000     0.706700000000     0.717600000000     0          
C8       C      0.627400000000     0.730100000000     0.682900000000     0          
H5       H      0.605830000000     0.721550000000     0.666750000000     0          
C9       C      0.702700000000     0.853800000000     0.448200000000     0          
C10      C      0.724700000000     0.882500000000     0.425100000000     0          
C11      C      0.705700000000     0.901100000000     0.392400000000     0          
H6       H      0.719880000000     0.920600000000     0.377550000000     0          
C12      C      0.666000000000     0.891600000000     0.380900000000     0          
C13      C      0.645100000000     0.861000000000     0.402700000000     0          
C14      C      0.663800000000     0.843700000000     0.435800000000     0          
H7       H      0.649670000000     0.824230000000     0.450670000000     0          
C15      C      0.768000000000     0.894200000000     0.435600000000     0          
C16      C      0.778100000000     0.906500000000     0.474300000000     0          
H8       H      0.758440000000     0.907260000000     0.494660000000     0          
C17      C      0.818000000000     0.917900000000     0.482700000000     0          
H9       H      0.825170000000     0.925670000000     0.508990000000     0          
C18      C      0.847300000000     0.917700000000     0.452200000000     0          
C19      C      0.837900000000     0.906700000000     0.412200000000     0          
H10      H      0.857610000000     0.906620000000     0.391850000000     0          
C20      C      0.796600000000     0.895400000000     0.404000000000     0          
H11      H      0.788730000000     0.888810000000     0.377640000000     0          
C21      C      0.890300000000     0.930800000000     0.462100000000     0          
C22      C      0.644100000000     0.913500000000     0.348900000000     0          
C23      C      0.661000000000     0.948400000000     0.330800000000     0          
H12      H      0.685610000000     0.958240000000     0.340750000000     0          
C24      C      0.643100000000     0.968500000000     0.299500000000     0          
C25      C      0.659100000000     0.008600000000     0.285700000000     0          
C26      C      0.701300000000     0.015100000000     0.283400000000     0          
H13      H      0.719380000000     0.993690000000     0.286970000000     0          
C27      C      0.715300000000     0.054100000000     0.275600000000     0          
H14      H      0.743120000000     0.059180000000     0.275230000000     0          
C28      C      0.688500000000     0.085100000000     0.268400000000     0          
C29      C      0.646900000000     0.078600000000     0.268200000000     0          
H15      H      0.629030000000     0.099630000000     0.262010000000     0          
C30      C      0.632400000000     0.040400000000     0.277200000000     0          
H16      H      0.604530000000     0.035710000000     0.277660000000     0          
C31      C      0.704600000000     0.127900000000     0.262000000000     0          
O5       O      0.774290000000     0.744160000000     0.678250000000     0          
O7       O      0.916710000000     0.932230000000     0.434550000000     0          
O8       O      0.895190000000     0.939850000000     0.498930000000     0          
O9       O      0.681860000000     0.152490000000     0.242300000000     0          
O10      O      0.737790000000     0.135340000000     0.278380000000     0          
Zr1      Zr     0.711780000000     0.770120000000     0.684180000000     0          
O12      O      0.748620000000     0.798430000000     0.725280000000     0          
Zr2      Zr     0.809350000000     0.782220000000     0.724770000000     0          
C32      C      0.831700000000     0.896000000000     0.643700000000     0          
H17      H      0.848630000000     0.884670000000     0.663340000000     0          
C33      C      0.796800000000     0.876600000000     0.632000000000     0          
C34      C      0.786000000000     0.836100000000     0.649500000000     0          
C35      C      0.841200000000     0.932900000000     0.625600000000     0          
H18      H      0.866390000000     0.944750000000     0.630380000000     0          
C36      C      0.814000000000     0.952000000000     0.600700000000     0          
H19      H      0.819170000000     0.978310000000     0.591740000000     0          
C37      C      0.778500000000     0.932400000000     0.588800000000     0          
H20      H      0.760870000000     0.944130000000     0.570070000000     0          
C38      C      0.770500000000     0.895000000000     0.605500000000     0          
H21      H      0.746400000000     0.881830000000     0.598690000000     0          
O14      O      0.751100000000     0.822300000000     0.648600000000     0          
C39?     C      0.741900000000     0.759900000000     0.593300000000     0          
C40?     C      0.733600000000     0.787200000000     0.557200000000     0          
C41?     C      0.758700000000     0.783700000000     0.523600000000     0          
H22?     H      0.781520000000     0.766920000000     0.524570000000     0          
C42?     C      0.749600000000     0.805400000000     0.488400000000     0          
H23?     H      0.766110000000     0.802580000000     0.465630000000     0          
C43?     C      0.716600000000     0.830900000000     0.486900000000     0          
C44?     C      0.692600000000     0.835000000000     0.522200000000     0          
H24?     H      0.671530000000     0.853840000000     0.522790000000     0          
C45?     C      0.700400000000     0.810900000000     0.556300000000     0          
H25?     H      0.682630000000     0.811300000000     0.578260000000     0          
O15?     O      0.772400000000     0.735000000000     0.593700000000     0          
O16?     O      0.713900000000     0.755600000000     0.621000000000     0          
O17?     O      0.649700000000     0.751000000000     0.666800000000     0          
O18?     O      0.812400000000     0.815800000000     0.666300000000     0          
O3       O      0.043300000000     0.884000000000     0.467600000000     0          
C8       C      0.019900000000     0.877400000000     0.432900000000     0          
H5       H      0.028450000000     0.855830000000     0.416750000000     0          
C9       C      0.896200000000     0.952700000000     0.198200000000     0          
C10      C      0.867500000000     0.974700000000     0.175100000000     0          
C11      C      0.848900000000     0.955700000000     0.142400000000     0          
H6       H      0.829400000000     0.969880000000     0.127550000000     0          
C12      C      0.858400000000     0.916000000000     0.130900000000     0          
C13      C      0.889000000000     0.895100000000     0.152700000000     0          
C14      C      0.906300000000     0.913800000000     0.185800000000     0          
H7       H      0.925770000000     0.899670000000     0.200670000000     0          
C15      C      0.855800000000     0.018000000000     0.185600000000     0          
C16      C      0.843500000000     0.028100000000     0.224300000000     0          
H8       H      0.842740000000     0.008440000000     0.244660000000     0          
C17      C      0.832100000000     0.068000000000     0.232700000000     0          
H9       H      0.824330000000     0.075170000000     0.258990000000     0          
C18      C      0.832300000000     0.097300000000     0.202200000000     0          
C19      C      0.843300000000     0.087900000000     0.162200000000     0          
H10      H      0.843380000000     0.107610000000     0.141850000000     0          
C20      C      0.854600000000     0.046600000000     0.154000000000     0          
H11      H      0.861190000000     0.038730000000     0.127640000000     0          
C21      C      0.819200000000     0.140300000000     0.212100000000     0          
C22      C      0.836500000000     0.894100000000     0.098900000000     0          
C23      C      0.801600000000     0.911000000000     0.080800000000     0          
H12      H      0.791760000000     0.935610000000     0.090750000000     0          
C24      C      0.781500000000     0.893100000000     0.049500000000     0          
C25      C      0.741400000000     0.909100000000     0.035700000000     0          
C26      C      0.734900000000     0.951300000000     0.033400000000     0          
H13      H      0.756310000000     0.969380000000     0.036970000000     0          
C27      C      0.695900000000     0.965300000000     0.025600000000     0          
H14      H      0.690820000000     0.993120000000     0.025230000000     0          
C28      C      0.664900000000     0.938500000000     0.018400000000     0          
C29      C      0.671400000000     0.896900000000     0.018200000000     0          
H15      H      0.650370000000     0.879030000000     0.012010000000     0          
C30      C      0.709600000000     0.882400000000     0.027200000000     0          
H16      H      0.714290000000     0.854530000000     0.027660000000     0          
C31      C      0.622100000000     0.954600000000     0.012000000000     0          
O5       O      0.005840000000     0.024290000000     0.428250000000     0          
O7       O      0.817770000000     0.166710000000     0.184550000000     0          
O8       O      0.810150000000     0.145190000000     0.248930000000     0          
O9       O      0.597510000000     0.931860000000     0.992300000000     0          
O10      O      0.614660000000     0.987790000000     0.028380000000     0          
Zr1      Zr     0.979880000000     0.961780000000     0.434180000000     0          
O12      O      0.951570000000     0.998620000000     0.475280000000     0          
Zr2      Zr     0.967780000000     0.059350000000     0.474770000000     0          
C32      C      0.854000000000     0.081700000000     0.393700000000     0          
H17      H      0.865330000000     0.098630000000     0.413340000000     0          
C33      C      0.873400000000     0.046800000000     0.382000000000     0          
C34      C      0.913900000000     0.036000000000     0.399500000000     0          
C35      C      0.817100000000     0.091200000000     0.375600000000     0          
H18      H      0.805250000000     0.116390000000     0.380380000000     0          
C36      C      0.798000000000     0.064000000000     0.350700000000     0          
H19      H      0.771690000000     0.069170000000     0.341740000000     0          
C37      C      0.817600000000     0.028500000000     0.338800000000     0          
H20      H      0.805870000000     0.010870000000     0.320070000000     0          
C38      C      0.855000000000     0.020500000000     0.355500000000     0          
H21      H      0.868170000000     0.996400000000     0.348690000000     0          
O14      O      0.927700000000     0.001100000000     0.398600000000     0          
C39?     C      0.990100000000     0.991900000000     0.343300000000     0          
C40?     C      0.962800000000     0.983600000000     0.307200000000     0          
C41?     C      0.966300000000     0.008700000000     0.273600000000     0          
H22?     H      0.983080000000     0.031520000000     0.274570000000     0          
C42?     C      0.944600000000     0.999600000000     0.238400000000     0          
H23?     H      0.947420000000     0.016110000000     0.215630000000     0          
C43?     C      0.919100000000     0.966600000000     0.236900000000     0          
C44?     C      0.915000000000     0.942600000000     0.272200000000     0          
H24?     H      0.896160000000     0.921530000000     0.272790000000     0          
C45?     C      0.939100000000     0.950400000000     0.306300000000     0          
H25?     H      0.938700000000     0.932630000000     0.328260000000     0          
O15?     O      0.015000000000     0.022400000000     0.343700000000     0          
O16?     O      0.994400000000     0.963900000000     0.371000000000     0          
O17?     O      0.999000000000     0.899700000000     0.416800000000     0          
O18?     O      0.934200000000     0.062400000000     0.416300000000     0          
O3       O      0.866000000000     0.293300000000     0.217600000000     0          
C8       C      0.872600000000     0.269900000000     0.182900000000     0          
H5       H      0.894170000000     0.278450000000     0.166750000000     0          
C9       C      0.797300000000     0.146200000000     0.948200000000     0          
C10      C      0.775300000000     0.117500000000     0.925100000000     0          
C11      C      0.794300000000     0.098900000000     0.892400000000     0          
H6       H      0.780120000000     0.079400000000     0.877550000000     0          
C12      C      0.834000000000     0.108400000000     0.880900000000     0          
C13      C      0.854900000000     0.139000000000     0.902700000000     0          
C14      C      0.836200000000     0.156300000000     0.935800000000     0          
H7       H      0.850330000000     0.175770000000     0.950670000000     0          
C15      C      0.732000000000     0.105800000000     0.935600000000     0          
C16      C      0.721900000000     0.093500000000     0.974300000000     0          
H8       H      0.741560000000     0.092740000000     0.994660000000     0          
C17      C      0.682000000000     0.082100000000     0.982700000000     0          
H9       H      0.674830000000     0.074330000000     0.008990000000     0          
C18      C      0.652700000000     0.082300000000     0.952200000000     0          
C19      C      0.662100000000     0.093300000000     0.912200000000     0          
H10      H      0.642390000000     0.093380000000     0.891850000000     0          
C20      C      0.703400000000     0.104600000000     0.904000000000     0          
H11      H      0.711270000000     0.111190000000     0.877640000000     0          
C21      C      0.609700000000     0.069200000000     0.962100000000     0          
C22      C      0.855900000000     0.086500000000     0.848900000000     0          
C23      C      0.839000000000     0.051600000000     0.830800000000     0          
H12      H      0.814390000000     0.041760000000     0.840750000000     0          
C24      C      0.856900000000     0.031500000000     0.799500000000     0          
C25      C      0.840900000000     0.991400000000     0.785700000000     0          
C26      C      0.798700000000     0.984900000000     0.783400000000     0          
H13      H      0.780620000000     0.006310000000     0.786970000000     0          
C27      C      0.784700000000     0.945900000000     0.775600000000     0          
H14      H      0.756880000000     0.940820000000     0.775230000000     0          
C28      C      0.811500000000     0.914900000000     0.768400000000     0          
C29      C      0.853100000000     0.921400000000     0.768200000000     0          
H15      H      0.870970000000     0.900370000000     0.762010000000     0          
C30      C      0.867600000000     0.959600000000     0.777200000000     0          
H16      H      0.895470000000     0.964290000000     0.777660000000     0          
C31      C      0.795400000000     0.872100000000     0.762000000000     0          
O5       O      0.725710000000     0.255840000000     0.178250000000     0          
O7       O      0.583290000000     0.067770000000     0.934550000000     0          
O8       O      0.604810000000     0.060150000000     0.998930000000     0          
O9       O      0.818140000000     0.847510000000     0.742300000000     0          
O10      O      0.762210000000     0.864660000000     0.778380000000     0          
Zr1      Zr     0.788220000000     0.229880000000     0.184180000000     0          
O12      O      0.751380000000     0.201570000000     0.225280000000     0          
Zr2      Zr     0.690650000000     0.217780000000     0.224770000000     0          
C32      C      0.668300000000     0.104000000000     0.143700000000     0          
H17      H      0.651370000000     0.115330000000     0.163340000000     0          
C33      C      0.703200000000     0.123400000000     0.132000000000     0          
C34      C      0.714000000000     0.163900000000     0.149500000000     0          
C35      C      0.658800000000     0.067100000000     0.125600000000     0          
H18      H      0.633610000000     0.055250000000     0.130380000000     0          
C36      C      0.686000000000     0.048000000000     0.100700000000     0          
H19      H      0.680830000000     0.021690000000     0.091740000000     0          
C37      C      0.721500000000     0.067600000000     0.088800000000     0          
H20      H      0.739130000000     0.055870000000     0.070070000000     0          
C38      C      0.729500000000     0.105000000000     0.105500000000     0          
H21      H      0.753600000000     0.118170000000     0.098690000000     0          
O14      O      0.748900000000     0.177700000000     0.148600000000     0          
C39?     C      0.758100000000     0.240100000000     0.093300000000     0          
C40?     C      0.766400000000     0.212800000000     0.057200000000     0          
C41?     C      0.741300000000     0.216300000000     0.023600000000     0          
H22?     H      0.718480000000     0.233080000000     0.024570000000     0          
C42?     C      0.750400000000     0.194600000000     0.988400000000     0          
H23?     H      0.733890000000     0.197420000000     0.965630000000     0          
C43?     C      0.783400000000     0.169100000000     0.986900000000     0          
C44?     C      0.807400000000     0.165000000000     0.022200000000     0          
H24?     H      0.828470000000     0.146160000000     0.022790000000     0          
C45?     C      0.799600000000     0.189100000000     0.056300000000     0          
H25?     H      0.817370000000     0.188700000000     0.078260000000     0          
O15?     O      0.727600000000     0.265000000000     0.093700000000     0          
O16?     O      0.786100000000     0.244400000000     0.121000000000     0          
O17?     O      0.850300000000     0.249000000000     0.166800000000     0          
O18?     O      0.687600000000     0.184200000000     0.166300000000     0          
O3       O      0.456700000000     0.116000000000     0.967600000000     0          
C8       C      0.480100000000     0.122600000000     0.932900000000     0          
H5       H      0.471550000000     0.144170000000     0.916750000000     0          
C9       C      0.603800000000     0.047300000000     0.698200000000     0          
C10      C      0.632500000000     0.025300000000     0.675100000000     0          
C11      C      0.651100000000     0.044300000000     0.642400000000     0          
H6       H      0.670600000000     0.030120000000     0.627550000000     0          
C12      C      0.641600000000     0.084000000000     0.630900000000     0          
C13      C      0.611000000000     0.104900000000     0.652700000000     0          
C14      C      0.593700000000     0.086200000000     0.685800000000     0          
H7       H      0.574230000000     0.100330000000     0.700670000000     0          
C15      C      0.644200000000     0.982000000000     0.685600000000     0          
C16      C      0.656500000000     0.971900000000     0.724300000000     0          
H8       H      0.657260000000     0.991560000000     0.744660000000     0          
C17      C      0.667900000000     0.932000000000     0.732700000000     0          
H9       H      0.675670000000     0.924830000000     0.758990000000     0          
C18      C      0.667700000000     0.902700000000     0.702200000000     0          
C19      C      0.656700000000     0.912100000000     0.662200000000     0          
H10      H      0.656620000000     0.892390000000     0.641850000000     0          
C20      C      0.645400000000     0.953400000000     0.654000000000     0          
H11      H      0.638810000000     0.961270000000     0.627640000000     0          
C21      C      0.680800000000     0.859700000000     0.712100000000     0          
C22      C      0.663500000000     0.105900000000     0.598900000000     0          
C23      C      0.698400000000     0.089000000000     0.580800000000     0          
H12      H      0.708240000000     0.064390000000     0.590750000000     0          
C24      C      0.718500000000     0.106900000000     0.549500000000     0          
C25      C      0.758600000000     0.090900000000     0.535700000000     0          
C26      C      0.765100000000     0.048700000000     0.533400000000     0          
H13      H      0.743690000000     0.030620000000     0.536970000000     0          
C27      C      0.804100000000     0.034700000000     0.525600000000     0          
H14      H      0.809180000000     0.006880000000     0.525230000000     0          
C28      C      0.835100000000     0.061500000000     0.518400000000     0          
C29      C      0.828600000000     0.103100000000     0.518200000000     0          
H15      H      0.849630000000     0.120970000000     0.512010000000     0          
C30      C      0.790400000000     0.117600000000     0.527200000000     0          
H16      H      0.785710000000     0.145470000000     0.527660000000     0          
C31      C      0.877900000000     0.045400000000     0.512000000000     0          
O5       O      0.494160000000     0.975710000000     0.928250000000     0          
O7       O      0.682230000000     0.833290000000     0.684550000000     0          
O8       O      0.689850000000     0.854810000000     0.748930000000     0          
O9       O      0.902490000000     0.068140000000     0.492300000000     0          
O10      O      0.885340000000     0.012210000000     0.528380000000     0          
Zr1      Zr     0.520120000000     0.038220000000     0.934180000000     0          
O12      O      0.548430000000     0.001380000000     0.975280000000     0          
Zr2      Zr     0.532220000000     0.940650000000     0.974770000000     0          
C32      C      0.646000000000     0.918300000000     0.893700000000     0          
H17      H      0.634670000000     0.901370000000     0.913340000000     0          
C33      C      0.626600000000     0.953200000000     0.882000000000     0          
C34      C      0.586100000000     0.964000000000     0.899500000000     0          
C35      C      0.682900000000     0.908800000000     0.875600000000     0          
H18      H      0.694750000000     0.883610000000     0.880380000000     0          
C36      C      0.702000000000     0.936000000000     0.850700000000     0          
H19      H      0.728310000000     0.930830000000     0.841740000000     0          
C37      C      0.682400000000     0.971500000000     0.838800000000     0          
H20      H      0.694130000000     0.989130000000     0.820070000000     0          
C38      C      0.645000000000     0.979500000000     0.855500000000     0          
H21      H      0.631830000000     0.003600000000     0.848690000000     0          
O14      O      0.572300000000     0.998900000000     0.898600000000     0          
C39?     C      0.509900000000     0.008100000000     0.843300000000     0          
C40?     C      0.537200000000     0.016400000000     0.807200000000     0          
C41?     C      0.533700000000     0.991300000000     0.773600000000     0          
H22?     H      0.516920000000     0.968480000000     0.774570000000     0          
C42?     C      0.555400000000     0.000400000000     0.738400000000     0          
H23?     H      0.552580000000     0.983890000000     0.715630000000     0          
C43?     C      0.580900000000     0.033400000000     0.736900000000     0          
C44?     C      0.585000000000     0.057400000000     0.772200000000     0          
H24?     H      0.603840000000     0.078470000000     0.772790000000     0          
C45?     C      0.560900000000     0.049600000000     0.806300000000     0          
H25?     H      0.561300000000     0.067370000000     0.828260000000     0          
O15?     O      0.485000000000     0.977600000000     0.843700000000     0          
O16?     O      0.505600000000     0.036100000000     0.871000000000     0          
O17?     O      0.501000000000     0.100300000000     0.916800000000     0          
O18?     O      0.565800000000     0.937600000000     0.916300000000     0          
O3       O      0.282400000000     0.134000000000     0.793300000000     0          
C8       C      0.317100000000     0.127400000000     0.769900000000     0          
H5       H      0.333250000000     0.105830000000     0.778450000000     0          
C9       C      0.551800000000     0.202700000000     0.646200000000     0          
C10      C      0.574900000000     0.224700000000     0.617500000000     0          
C11      C      0.607600000000     0.205700000000     0.598900000000     0          
H6       H      0.622450000000     0.219880000000     0.579400000000     0          
C12      C      0.619100000000     0.166000000000     0.608400000000     0          
C13      C      0.597300000000     0.145100000000     0.639000000000     0          
C14      C      0.564200000000     0.163800000000     0.656300000000     0          
H7       H      0.549330000000     0.149670000000     0.675770000000     0          
C15      C      0.564400000000     0.268000000000     0.605800000000     0          
C16      C      0.525700000000     0.278100000000     0.593500000000     0          
H8       H      0.505340000000     0.258440000000     0.592740000000     0          
C17      C      0.517300000000     0.318000000000     0.582100000000     0          
H9       H      0.491010000000     0.325170000000     0.574330000000     0          
C18      C      0.547800000000     0.347300000000     0.582300000000     0          
C19      C      0.587800000000     0.337900000000     0.593300000000     0          
H10      H      0.608150000000     0.357610000000     0.593380000000     0          
C20      C      0.596000000000     0.296600000000     0.604600000000     0          
H11      H      0.622360000000     0.288730000000     0.611190000000     0          
C21      C      0.537900000000     0.390300000000     0.569200000000     0          
C22      C      0.651100000000     0.144100000000     0.586500000000     0          
C23      C      0.669200000000     0.161000000000     0.551600000000     0          
H12      H      0.659250000000     0.185610000000     0.541760000000     0          
C24      C      0.700500000000     0.143100000000     0.531500000000     0          
C25      C      0.714300000000     0.159100000000     0.491400000000     0          
C26      C      0.716600000000     0.201300000000     0.484900000000     0          
H13      H      0.713030000000     0.219380000000     0.506310000000     0          
C27      C      0.724400000000     0.215300000000     0.445900000000     0          
H14      H      0.724770000000     0.243120000000     0.440820000000     0          
C28      C      0.731600000000     0.188500000000     0.414900000000     0          
C29      C      0.731800000000     0.146900000000     0.421400000000     0          
H15      H      0.737990000000     0.129030000000     0.400370000000     0          
C30      C      0.722800000000     0.132400000000     0.459600000000     0          
H16      H      0.722340000000     0.104530000000     0.464290000000     0          
C31      C      0.738000000000     0.204600000000     0.372100000000     0          
O5       O      0.321750000000     0.274290000000     0.755840000000     0          
O7       O      0.565450000000     0.416710000000     0.567770000000     0          
O8       O      0.501070000000     0.395190000000     0.560150000000     0          
O9       O      0.757700000000     0.181860000000     0.347510000000     0          
O10      O      0.721620000000     0.237790000000     0.364660000000     0          
Zr1      Zr     0.315820000000     0.211780000000     0.729880000000     0          
O12      O      0.274720000000     0.248620000000     0.701570000000     0          
Zr2      Zr     0.275230000000     0.309350000000     0.717780000000     0          
C32      C      0.356300000000     0.331700000000     0.604000000000     0          
H17      H      0.336660000000     0.348630000000     0.615330000000     0          
C33      C      0.368000000000     0.296800000000     0.623400000000     0          
C34      C      0.350500000000     0.286000000000     0.663900000000     0          
C35      C      0.374400000000     0.341200000000     0.567100000000     0          
H18      H      0.369620000000     0.366390000000     0.555250000000     0          
C36      C      0.399300000000     0.314000000000     0.548000000000     0          
H19      H      0.408260000000     0.319170000000     0.521690000000     0          
C37      C      0.411200000000     0.278500000000     0.567600000000     0          
H20      H      0.429930000000     0.260870000000     0.555870000000     0          
C38      C      0.394500000000     0.270500000000     0.605000000000     0          
H21      H      0.401310000000     0.246400000000     0.618170000000     0          
O14      O      0.351400000000     0.251100000000     0.677700000000     0          
C39?     C      0.406700000000     0.241900000000     0.740100000000     0          
C40?     C      0.442800000000     0.233600000000     0.712800000000     0          
C41?     C      0.476400000000     0.258700000000     0.716300000000     0          
H22?     H      0.475430000000     0.281520000000     0.733080000000     0          
C42?     C      0.511600000000     0.249600000000     0.694600000000     0          
H23?     H      0.534370000000     0.266110000000     0.697420000000     0          
C43?     C      0.513100000000     0.216600000000     0.669100000000     0          
C44?     C      0.477800000000     0.192600000000     0.665000000000     0          
H24?     H      0.477210000000     0.171530000000     0.646160000000     0          
C45?     C      0.443700000000     0.200400000000     0.689100000000     0          
H25?     H      0.421740000000     0.182630000000     0.688700000000     0          
O15?     O      0.406300000000     0.272400000000     0.765000000000     0          
O16?     O      0.379000000000     0.213900000000     0.744400000000     0          
O17?     O      0.333200000000     0.149700000000     0.749000000000     0          
O18?     O      0.333700000000     0.312400000000     0.684200000000     0          
O3       O      0.782400000000     0.366000000000     0.206700000000     0          
C8       C      0.817100000000     0.372600000000     0.230100000000     0          
H5       H      0.833250000000     0.394170000000     0.221550000000     0          
C9       C      0.051800000000     0.297300000000     0.353800000000     0          
C10      C      0.074900000000     0.275300000000     0.382500000000     0          
C11      C      0.107600000000     0.294300000000     0.401100000000     0          
H6       H      0.122450000000     0.280120000000     0.420600000000     0          
C12      C      0.119100000000     0.334000000000     0.391600000000     0          
C13      C      0.097300000000     0.354900000000     0.361000000000     0          
C14      C      0.064200000000     0.336200000000     0.343700000000     0          
H7       H      0.049330000000     0.350330000000     0.324230000000     0          
C15      C      0.064400000000     0.232000000000     0.394200000000     0          
C16      C      0.025700000000     0.221900000000     0.406500000000     0          
H8       H      0.005340000000     0.241560000000     0.407260000000     0          
C17      C      0.017300000000     0.182000000000     0.417900000000     0          
H9       H      0.991010000000     0.174830000000     0.425670000000     0          
C18      C      0.047800000000     0.152700000000     0.417700000000     0          
C19      C      0.087800000000     0.162100000000     0.406700000000     0          
H10      H      0.108150000000     0.142390000000     0.406620000000     0          
C20      C      0.096000000000     0.203400000000     0.395400000000     0          
H11      H      0.122360000000     0.211270000000     0.388810000000     0          
C21      C      0.037900000000     0.109700000000     0.430800000000     0          
C22      C      0.151100000000     0.355900000000     0.413500000000     0          
C23      C      0.169200000000     0.339000000000     0.448400000000     0          
H12      H      0.159250000000     0.314390000000     0.458240000000     0          
C24      C      0.200500000000     0.356900000000     0.468500000000     0          
C25      C      0.214300000000     0.340900000000     0.508600000000     0          
C26      C      0.216600000000     0.298700000000     0.515100000000     0          
H13      H      0.213030000000     0.280620000000     0.493690000000     0          
C27      C      0.224400000000     0.284700000000     0.554100000000     0          
H14      H      0.224770000000     0.256880000000     0.559180000000     0          
C28      C      0.231600000000     0.311500000000     0.585100000000     0          
C29      C      0.231800000000     0.353100000000     0.578600000000     0          
H15      H      0.237990000000     0.370970000000     0.599630000000     0          
C30      C      0.222800000000     0.367600000000     0.540400000000     0          
H16      H      0.222340000000     0.395470000000     0.535710000000     0          
C31      C      0.238000000000     0.295400000000     0.627900000000     0          
O5       O      0.821750000000     0.225710000000     0.244160000000     0          
O7       O      0.065450000000     0.083290000000     0.432230000000     0          
O8       O      0.001070000000     0.104810000000     0.439850000000     0          
O9       O      0.257700000000     0.318140000000     0.652490000000     0          
O10      O      0.221620000000     0.262210000000     0.635340000000     0          
Zr1      Zr     0.815820000000     0.288220000000     0.270120000000     0          
O12      O      0.774720000000     0.251380000000     0.298430000000     0          
Zr2      Zr     0.775230000000     0.190650000000     0.282220000000     0          
C32      C      0.856300000000     0.168300000000     0.396000000000     0          
H17      H      0.836660000000     0.151370000000     0.384670000000     0          
C33      C      0.868000000000     0.203200000000     0.376600000000     0          
C34      C      0.850500000000     0.214000000000     0.336100000000     0          
C35      C      0.874400000000     0.158800000000     0.432900000000     0          
H18      H      0.869620000000     0.133610000000     0.444750000000     0          
C36      C      0.899300000000     0.186000000000     0.452000000000     0          
H19      H      0.908260000000     0.180830000000     0.478310000000     0          
C37      C      0.911200000000     0.221500000000     0.432400000000     0          
H20      H      0.929930000000     0.239130000000     0.444130000000     0          
C38      C      0.894500000000     0.229500000000     0.395000000000     0          
H21      H      0.901310000000     0.253600000000     0.381830000000     0          
O14      O      0.851400000000     0.248900000000     0.322300000000     0          
C39?     C      0.906700000000     0.258100000000     0.259900000000     0          
C40?     C      0.942800000000     0.266400000000     0.287200000000     0          
C41?     C      0.976400000000     0.241300000000     0.283700000000     0          
H22?     H      0.975430000000     0.218480000000     0.266920000000     0          
C42?     C      0.011600000000     0.250400000000     0.305400000000     0          
H23?     H      0.034370000000     0.233890000000     0.302580000000     0          
C43?     C      0.013100000000     0.283400000000     0.330900000000     0          
C44?     C      0.977800000000     0.307400000000     0.335000000000     0          
H24?     H      0.977210000000     0.328470000000     0.353840000000     0          
C45?     C      0.943700000000     0.299600000000     0.310900000000     0          
H25?     H      0.921740000000     0.317370000000     0.311300000000     0          
O15?     O      0.906300000000     0.227600000000     0.235000000000     0          
O16?     O      0.879000000000     0.286100000000     0.255600000000     0          
O17?     O      0.833200000000     0.350300000000     0.251000000000     0          
O18?     O      0.833700000000     0.187600000000     0.315800000000     0          
O3       O      0.384000000000     0.032400000000     0.956700000000     0          
C8       C      0.377400000000     0.067100000000     0.980100000000     0          
H5       H      0.355830000000     0.083250000000     0.971550000000     0          
C9       C      0.452700000000     0.301800000000     0.103800000000     0          
C10      C      0.474700000000     0.324900000000     0.132500000000     0          
C11      C      0.455700000000     0.357600000000     0.151100000000     0          
H6       H      0.469880000000     0.372450000000     0.170600000000     0          
C12      C      0.416000000000     0.369100000000     0.141600000000     0          
C13      C      0.395100000000     0.347300000000     0.111000000000     0          
C14      C      0.413800000000     0.314200000000     0.093700000000     0          
H7       H      0.399670000000     0.299330000000     0.074230000000     0          
C15      C      0.518000000000     0.314400000000     0.144200000000     0          
C16      C      0.528100000000     0.275700000000     0.156500000000     0          
H8       H      0.508440000000     0.255340000000     0.157260000000     0          
C17      C      0.568000000000     0.267300000000     0.167900000000     0          
H9       H      0.575170000000     0.241010000000     0.175670000000     0          
C18      C      0.597300000000     0.297800000000     0.167700000000     0          
C19      C      0.587900000000     0.337800000000     0.156700000000     0          
H10      H      0.607610000000     0.358150000000     0.156620000000     0          
C20      C      0.546600000000     0.346000000000     0.145400000000     0          
H11      H      0.538730000000     0.372360000000     0.138810000000     0          
C21      C      0.640300000000     0.287900000000     0.180800000000     0          
C22      C      0.394100000000     0.401100000000     0.163500000000     0          
C23      C      0.411000000000     0.419200000000     0.198400000000     0          
H12      H      0.435610000000     0.409250000000     0.208240000000     0          
C24      C      0.393100000000     0.450500000000     0.218500000000     0          
C25      C      0.409100000000     0.464300000000     0.258600000000     0          
C26      C      0.451300000000     0.466600000000     0.265100000000     0          
H13      H      0.469380000000     0.463030000000     0.243690000000     0          
C27      C      0.465300000000     0.474400000000     0.304100000000     0          
H14      H      0.493120000000     0.474770000000     0.309180000000     0          
C28      C      0.438500000000     0.481600000000     0.335100000000     0          
C29      C      0.396900000000     0.481800000000     0.328600000000     0          
H15      H      0.379030000000     0.487990000000     0.349630000000     0          
C30      C      0.382400000000     0.472800000000     0.290400000000     0          
H16      H      0.354530000000     0.472340000000     0.285710000000     0          
C31      C      0.454600000000     0.488000000000     0.377900000000     0          
O5       O      0.524290000000     0.071750000000     0.994160000000     0          
O7       O      0.666710000000     0.315450000000     0.182230000000     0          
O8       O      0.645190000000     0.251070000000     0.189850000000     0          
O9       O      0.431860000000     0.507700000000     0.402490000000     0          
O10      O      0.487790000000     0.471620000000     0.385340000000     0          
Zr1      Zr     0.461780000000     0.065820000000     0.020120000000     0          
O12      O      0.498620000000     0.024720000000     0.048430000000     0          
Zr2      Zr     0.559350000000     0.025230000000     0.032220000000     0          
C32      C      0.581700000000     0.106300000000     0.146000000000     0          
H17      H      0.598630000000     0.086660000000     0.134670000000     0          
C33      C      0.546800000000     0.118000000000     0.126600000000     0          
C34      C      0.536000000000     0.100500000000     0.086100000000     0          
C35      C      0.591200000000     0.124400000000     0.182900000000     0          
H18      H      0.616390000000     0.119620000000     0.194750000000     0          
C36      C      0.564000000000     0.149300000000     0.202000000000     0          
H19      H      0.569170000000     0.158260000000     0.228310000000     0          
C37      C      0.528500000000     0.161200000000     0.182400000000     0          
H20      H      0.510870000000     0.179930000000     0.194130000000     0          
C38      C      0.520500000000     0.144500000000     0.145000000000     0          
H21      H      0.496400000000     0.151310000000     0.131830000000     0          
O14      O      0.501100000000     0.101400000000     0.072300000000     0          
C39?     C      0.491900000000     0.156700000000     0.009900000000     0          
C40?     C      0.483600000000     0.192800000000     0.037200000000     0          
C41?     C      0.508700000000     0.226400000000     0.033700000000     0          
H22?     H      0.531520000000     0.225430000000     0.016920000000     0          
C42?     C      0.499600000000     0.261600000000     0.055400000000     0          
H23?     H      0.516110000000     0.284370000000     0.052580000000     0          
C43?     C      0.466600000000     0.263100000000     0.080900000000     0          
C44?     C      0.442600000000     0.227800000000     0.085000000000     0          
H24?     H      0.421530000000     0.227210000000     0.103840000000     0          
C45?     C      0.450400000000     0.193700000000     0.060900000000     0          
H25?     H      0.432630000000     0.171740000000     0.061300000000     0          
O15?     O      0.522400000000     0.156300000000     0.985000000000     0          
O16?     O      0.463900000000     0.129000000000     0.005600000000     0          
O17?     O      0.399700000000     0.083200000000     0.001000000000     0          
O18?     O      0.562400000000     0.083700000000     0.065800000000     0          
O3       O      0.717600000000     0.634000000000     0.706700000000     0          
C8       C      0.682900000000     0.627400000000     0.730100000000     0          
H5       H      0.666750000000     0.605830000000     0.721550000000     0          
C9       C      0.448200000000     0.702700000000     0.853800000000     0          
C10      C      0.425100000000     0.724700000000     0.882500000000     0          
C11      C      0.392400000000     0.705700000000     0.901100000000     0          
H6       H      0.377550000000     0.719880000000     0.920600000000     0          
C12      C      0.380900000000     0.666000000000     0.891600000000     0          
C13      C      0.402700000000     0.645100000000     0.861000000000     0          
C14      C      0.435800000000     0.663800000000     0.843700000000     0          
H7       H      0.450670000000     0.649670000000     0.824230000000     0          
C15      C      0.435600000000     0.768000000000     0.894200000000     0          
C16      C      0.474300000000     0.778100000000     0.906500000000     0          
H8       H      0.494660000000     0.758440000000     0.907260000000     0          
C17      C      0.482700000000     0.818000000000     0.917900000000     0          
H9       H      0.508990000000     0.825170000000     0.925670000000     0          
C18      C      0.452200000000     0.847300000000     0.917700000000     0          
C19      C      0.412200000000     0.837900000000     0.906700000000     0          
H10      H      0.391850000000     0.857610000000     0.906620000000     0          
C20      C      0.404000000000     0.796600000000     0.895400000000     0          
H11      H      0.377640000000     0.788730000000     0.888810000000     0          
C21      C      0.462100000000     0.890300000000     0.930800000000     0          
C22      C      0.348900000000     0.644100000000     0.913500000000     0          
C23      C      0.330800000000     0.661000000000     0.948400000000     0          
H12      H      0.340750000000     0.685610000000     0.958240000000     0          
C24      C      0.299500000000     0.643100000000     0.968500000000     0          
C25      C      0.285700000000     0.659100000000     0.008600000000     0          
C26      C      0.283400000000     0.701300000000     0.015100000000     0          
H13      H      0.286970000000     0.719380000000     0.993690000000     0          
C27      C      0.275600000000     0.715300000000     0.054100000000     0          
H14      H      0.275230000000     0.743120000000     0.059180000000     0          
C28      C      0.268400000000     0.688500000000     0.085100000000     0          
C29      C      0.268200000000     0.646900000000     0.078600000000     0          
H15      H      0.262010000000     0.629030000000     0.099630000000     0          
C30      C      0.277200000000     0.632400000000     0.040400000000     0          
H16      H      0.277660000000     0.604530000000     0.035710000000     0          
C31      C      0.262000000000     0.704600000000     0.127900000000     0          
O5       O      0.678250000000     0.774290000000     0.744160000000     0          
O7       O      0.434550000000     0.916710000000     0.932230000000     0          
O8       O      0.498930000000     0.895190000000     0.939850000000     0          
O9       O      0.242300000000     0.681860000000     0.152490000000     0          
O10      O      0.278380000000     0.737790000000     0.135340000000     0          
Zr1      Zr     0.684180000000     0.711780000000     0.770120000000     0          
O12      O      0.725280000000     0.748620000000     0.798430000000     0          
Zr2      Zr     0.724770000000     0.809350000000     0.782220000000     0          
C32      C      0.643700000000     0.831700000000     0.896000000000     0          
H17      H      0.663340000000     0.848630000000     0.884670000000     0          
C33      C      0.632000000000     0.796800000000     0.876600000000     0          
C34      C      0.649500000000     0.786000000000     0.836100000000     0          
C35      C      0.625600000000     0.841200000000     0.932900000000     0          
H18      H      0.630380000000     0.866390000000     0.944750000000     0          
C36      C      0.600700000000     0.814000000000     0.952000000000     0          
H19      H      0.591740000000     0.819170000000     0.978310000000     0          
C37      C      0.588800000000     0.778500000000     0.932400000000     0          
H20      H      0.570070000000     0.760870000000     0.944130000000     0          
C38      C      0.605500000000     0.770500000000     0.895000000000     0          
H21      H      0.598690000000     0.746400000000     0.881830000000     0          
O14      O      0.648600000000     0.751100000000     0.822300000000     0          
C39?     C      0.593300000000     0.741900000000     0.759900000000     0          
C40?     C      0.557200000000     0.733600000000     0.787200000000     0          
C41?     C      0.523600000000     0.758700000000     0.783700000000     0          
H22?     H      0.524570000000     0.781520000000     0.766920000000     0          
C42?     C      0.488400000000     0.749600000000     0.805400000000     0          
H23?     H      0.465630000000     0.766110000000     0.802580000000     0          
C43?     C      0.486900000000     0.716600000000     0.830900000000     0          
C44?     C      0.522200000000     0.692600000000     0.835000000000     0          
H24?     H      0.522790000000     0.671530000000     0.853840000000     0          
C45?     C      0.556300000000     0.700400000000     0.810900000000     0          
H25?     H      0.578260000000     0.682630000000     0.811300000000     0          
O15?     O      0.593700000000     0.772400000000     0.735000000000     0          
O16?     O      0.621000000000     0.713900000000     0.755600000000     0          
O17?     O      0.666800000000     0.649700000000     0.751000000000     0          
O18?     O      0.666300000000     0.812400000000     0.815800000000     0          
O3       O      0.116000000000     0.967600000000     0.456700000000     0          
C8       C      0.122600000000     0.932900000000     0.480100000000     0          
H5       H      0.144170000000     0.916750000000     0.471550000000     0          
C9       C      0.047300000000     0.698200000000     0.603800000000     0          
C10      C      0.025300000000     0.675100000000     0.632500000000     0          
C11      C      0.044300000000     0.642400000000     0.651100000000     0          
H6       H      0.030120000000     0.627550000000     0.670600000000     0          
C12      C      0.084000000000     0.630900000000     0.641600000000     0          
C13      C      0.104900000000     0.652700000000     0.611000000000     0          
C14      C      0.086200000000     0.685800000000     0.593700000000     0          
H7       H      0.100330000000     0.700670000000     0.574230000000     0          
C15      C      0.982000000000     0.685600000000     0.644200000000     0          
C16      C      0.971900000000     0.724300000000     0.656500000000     0          
H8       H      0.991560000000     0.744660000000     0.657260000000     0          
C17      C      0.932000000000     0.732700000000     0.667900000000     0          
H9       H      0.924830000000     0.758990000000     0.675670000000     0          
C18      C      0.902700000000     0.702200000000     0.667700000000     0          
C19      C      0.912100000000     0.662200000000     0.656700000000     0          
H10      H      0.892390000000     0.641850000000     0.656620000000     0          
C20      C      0.953400000000     0.654000000000     0.645400000000     0          
H11      H      0.961270000000     0.627640000000     0.638810000000     0          
C21      C      0.859700000000     0.712100000000     0.680800000000     0          
C22      C      0.105900000000     0.598900000000     0.663500000000     0          
C23      C      0.089000000000     0.580800000000     0.698400000000     0          
H12      H      0.064390000000     0.590750000000     0.708240000000     0          
C24      C      0.106900000000     0.549500000000     0.718500000000     0          
C25      C      0.090900000000     0.535700000000     0.758600000000     0          
C26      C      0.048700000000     0.533400000000     0.765100000000     0          
H13      H      0.030620000000     0.536970000000     0.743690000000     0          
C27      C      0.034700000000     0.525600000000     0.804100000000     0          
H14      H      0.006880000000     0.525230000000     0.809180000000     0          
C28      C      0.061500000000     0.518400000000     0.835100000000     0          
C29      C      0.103100000000     0.518200000000     0.828600000000     0          
H15      H      0.120970000000     0.512010000000     0.849630000000     0          
C30      C      0.117600000000     0.527200000000     0.790400000000     0          
H16      H      0.145470000000     0.527660000000     0.785710000000     0          
C31      C      0.045400000000     0.512000000000     0.877900000000     0          
O5       O      0.975710000000     0.928250000000     0.494160000000     0          
O7       O      0.833290000000     0.684550000000     0.682230000000     0          
O8       O      0.854810000000     0.748930000000     0.689850000000     0          
O9       O      0.068140000000     0.492300000000     0.902490000000     0          
O10      O      0.012210000000     0.528380000000     0.885340000000     0          
Zr1      Zr     0.038220000000     0.934180000000     0.520120000000     0          
O12      O      0.001380000000     0.975280000000     0.548430000000     0          
Zr2      Zr     0.940650000000     0.974770000000     0.532220000000     0          
C32      C      0.918300000000     0.893700000000     0.646000000000     0          
H17      H      0.901370000000     0.913340000000     0.634670000000     0          
C33      C      0.953200000000     0.882000000000     0.626600000000     0          
C34      C      0.964000000000     0.899500000000     0.586100000000     0          
C35      C      0.908800000000     0.875600000000     0.682900000000     0          
H18      H      0.883610000000     0.880380000000     0.694750000000     0          
C36      C      0.936000000000     0.850700000000     0.702000000000     0          
H19      H      0.930830000000     0.841740000000     0.728310000000     0          
C37      C      0.971500000000     0.838800000000     0.682400000000     0          
H20      H      0.989130000000     0.820070000000     0.694130000000     0          
C38      C      0.979500000000     0.855500000000     0.645000000000     0          
H21      H      0.003600000000     0.848690000000     0.631830000000     0          
O14      O      0.998900000000     0.898600000000     0.572300000000     0          
C39?     C      0.008100000000     0.843300000000     0.509900000000     0          
C40?     C      0.016400000000     0.807200000000     0.537200000000     0          
C41?     C      0.991300000000     0.773600000000     0.533700000000     0          
H22?     H      0.968480000000     0.774570000000     0.516920000000     0          
C42?     C      0.000400000000     0.738400000000     0.555400000000     0          
H23?     H      0.983890000000     0.715630000000     0.552580000000     0          
C43?     C      0.033400000000     0.736900000000     0.580900000000     0          
C44?     C      0.057400000000     0.772200000000     0.585000000000     0          
H24?     H      0.078470000000     0.772790000000     0.603840000000     0          
C45?     C      0.049600000000     0.806300000000     0.560900000000     0          
H25?     H      0.067370000000     0.828260000000     0.561300000000     0          
O15?     O      0.977600000000     0.843700000000     0.485000000000     0          
O16?     O      0.036100000000     0.871000000000     0.505600000000     0          
O17?     O      0.100300000000     0.916800000000     0.501000000000     0          
O18?     O      0.937600000000     0.916300000000     0.565800000000     0          
O3       O      0.217600000000     0.866000000000     0.293300000000     0          
C8       C      0.182900000000     0.872600000000     0.269900000000     0          
H5       H      0.166750000000     0.894170000000     0.278450000000     0          
C9       C      0.948200000000     0.797300000000     0.146200000000     0          
C10      C      0.925100000000     0.775300000000     0.117500000000     0          
C11      C      0.892400000000     0.794300000000     0.098900000000     0          
H6       H      0.877550000000     0.780120000000     0.079400000000     0          
C12      C      0.880900000000     0.834000000000     0.108400000000     0          
C13      C      0.902700000000     0.854900000000     0.139000000000     0          
C14      C      0.935800000000     0.836200000000     0.156300000000     0          
H7       H      0.950670000000     0.850330000000     0.175770000000     0          
C15      C      0.935600000000     0.732000000000     0.105800000000     0          
C16      C      0.974300000000     0.721900000000     0.093500000000     0          
H8       H      0.994660000000     0.741560000000     0.092740000000     0          
C17      C      0.982700000000     0.682000000000     0.082100000000     0          
H9       H      0.008990000000     0.674830000000     0.074330000000     0          
C18      C      0.952200000000     0.652700000000     0.082300000000     0          
C19      C      0.912200000000     0.662100000000     0.093300000000     0          
H10      H      0.891850000000     0.642390000000     0.093380000000     0          
C20      C      0.904000000000     0.703400000000     0.104600000000     0          
H11      H      0.877640000000     0.711270000000     0.111190000000     0          
C21      C      0.962100000000     0.609700000000     0.069200000000     0          
C22      C      0.848900000000     0.855900000000     0.086500000000     0          
C23      C      0.830800000000     0.839000000000     0.051600000000     0          
H12      H      0.840750000000     0.814390000000     0.041760000000     0          
C24      C      0.799500000000     0.856900000000     0.031500000000     0          
C25      C      0.785700000000     0.840900000000     0.991400000000     0          
C26      C      0.783400000000     0.798700000000     0.984900000000     0          
H13      H      0.786970000000     0.780620000000     0.006310000000     0          
C27      C      0.775600000000     0.784700000000     0.945900000000     0          
H14      H      0.775230000000     0.756880000000     0.940820000000     0          
C28      C      0.768400000000     0.811500000000     0.914900000000     0          
C29      C      0.768200000000     0.853100000000     0.921400000000     0          
H15      H      0.762010000000     0.870970000000     0.900370000000     0          
C30      C      0.777200000000     0.867600000000     0.959600000000     0          
H16      H      0.777660000000     0.895470000000     0.964290000000     0          
C31      C      0.762000000000     0.795400000000     0.872100000000     0          
O5       O      0.178250000000     0.725710000000     0.255840000000     0          
O7       O      0.934550000000     0.583290000000     0.067770000000     0          
O8       O      0.998930000000     0.604810000000     0.060150000000     0          
O9       O      0.742300000000     0.818140000000     0.847510000000     0          
O10      O      0.778380000000     0.762210000000     0.864660000000     0          
Zr1      Zr     0.184180000000     0.788220000000     0.229880000000     0          
O12      O      0.225280000000     0.751380000000     0.201570000000     0          
Zr2      Zr     0.224770000000     0.690650000000     0.217780000000     0          
C32      C      0.143700000000     0.668300000000     0.104000000000     0          
H17      H      0.163340000000     0.651370000000     0.115330000000     0          
C33      C      0.132000000000     0.703200000000     0.123400000000     0          
C34      C      0.149500000000     0.714000000000     0.163900000000     0          
C35      C      0.125600000000     0.658800000000     0.067100000000     0          
H18      H      0.130380000000     0.633610000000     0.055250000000     0          
C36      C      0.100700000000     0.686000000000     0.048000000000     0          
H19      H      0.091740000000     0.680830000000     0.021690000000     0          
C37      C      0.088800000000     0.721500000000     0.067600000000     0          
H20      H      0.070070000000     0.739130000000     0.055870000000     0          
C38      C      0.105500000000     0.729500000000     0.105000000000     0          
H21      H      0.098690000000     0.753600000000     0.118170000000     0          
O14      O      0.148600000000     0.748900000000     0.177700000000     0          
C39?     C      0.093300000000     0.758100000000     0.240100000000     0          
C40?     C      0.057200000000     0.766400000000     0.212800000000     0          
C41?     C      0.023600000000     0.741300000000     0.216300000000     0          
H22?     H      0.024570000000     0.718480000000     0.233080000000     0          
C42?     C      0.988400000000     0.750400000000     0.194600000000     0          
H23?     H      0.965630000000     0.733890000000     0.197420000000     0          
C43?     C      0.986900000000     0.783400000000     0.169100000000     0          
C44?     C      0.022200000000     0.807400000000     0.165000000000     0          
H24?     H      0.022790000000     0.828470000000     0.146160000000     0          
C45?     C      0.056300000000     0.799600000000     0.189100000000     0          
H25?     H      0.078260000000     0.817370000000     0.188700000000     0          
O15?     O      0.093700000000     0.727600000000     0.265000000000     0          
O16?     O      0.121000000000     0.786100000000     0.244400000000     0          
O17?     O      0.166800000000     0.850300000000     0.249000000000     0          
O18?     O      0.166300000000     0.687600000000     0.184200000000     0          
O3       O      0.884000000000     0.467600000000     0.043300000000     0          
C8       C      0.877400000000     0.432900000000     0.019900000000     0          
H5       H      0.855830000000     0.416750000000     0.028450000000     0          
C9       C      0.952700000000     0.198200000000     0.896200000000     0          
C10      C      0.974700000000     0.175100000000     0.867500000000     0          
C11      C      0.955700000000     0.142400000000     0.848900000000     0          
H6       H      0.969880000000     0.127550000000     0.829400000000     0          
C12      C      0.916000000000     0.130900000000     0.858400000000     0          
C13      C      0.895100000000     0.152700000000     0.889000000000     0          
C14      C      0.913800000000     0.185800000000     0.906300000000     0          
H7       H      0.899670000000     0.200670000000     0.925770000000     0          
C15      C      0.018000000000     0.185600000000     0.855800000000     0          
C16      C      0.028100000000     0.224300000000     0.843500000000     0          
H8       H      0.008440000000     0.244660000000     0.842740000000     0          
C17      C      0.068000000000     0.232700000000     0.832100000000     0          
H9       H      0.075170000000     0.258990000000     0.824330000000     0          
C18      C      0.097300000000     0.202200000000     0.832300000000     0          
C19      C      0.087900000000     0.162200000000     0.843300000000     0          
H10      H      0.107610000000     0.141850000000     0.843380000000     0          
C20      C      0.046600000000     0.154000000000     0.854600000000     0          
H11      H      0.038730000000     0.127640000000     0.861190000000     0          
C21      C      0.140300000000     0.212100000000     0.819200000000     0          
C22      C      0.894100000000     0.098900000000     0.836500000000     0          
C23      C      0.911000000000     0.080800000000     0.801600000000     0          
H12      H      0.935610000000     0.090750000000     0.791760000000     0          
C24      C      0.893100000000     0.049500000000     0.781500000000     0          
C25      C      0.909100000000     0.035700000000     0.741400000000     0          
C26      C      0.951300000000     0.033400000000     0.734900000000     0          
H13      H      0.969380000000     0.036970000000     0.756310000000     0          
C27      C      0.965300000000     0.025600000000     0.695900000000     0          
H14      H      0.993120000000     0.025230000000     0.690820000000     0          
C28      C      0.938500000000     0.018400000000     0.664900000000     0          
C29      C      0.896900000000     0.018200000000     0.671400000000     0          
H15      H      0.879030000000     0.012010000000     0.650370000000     0          
C30      C      0.882400000000     0.027200000000     0.709600000000     0          
H16      H      0.854530000000     0.027660000000     0.714290000000     0          
C31      C      0.954600000000     0.012000000000     0.622100000000     0          
O5       O      0.024290000000     0.428250000000     0.005840000000     0          
O7       O      0.166710000000     0.184550000000     0.817770000000     0          
O8       O      0.145190000000     0.248930000000     0.810150000000     0          
O9       O      0.931860000000     0.992300000000     0.597510000000     0          
O10      O      0.987790000000     0.028380000000     0.614660000000     0          
Zr1      Zr     0.961780000000     0.434180000000     0.979880000000     0          
O12      O      0.998620000000     0.475280000000     0.951570000000     0          
Zr2      Zr     0.059350000000     0.474770000000     0.967780000000     0          
C32      C      0.081700000000     0.393700000000     0.854000000000     0          
H17      H      0.098630000000     0.413340000000     0.865330000000     0          
C33      C      0.046800000000     0.382000000000     0.873400000000     0          
C34      C      0.036000000000     0.399500000000     0.913900000000     0          
C35      C      0.091200000000     0.375600000000     0.817100000000     0          
H18      H      0.116390000000     0.380380000000     0.805250000000     0          
C36      C      0.064000000000     0.350700000000     0.798000000000     0          
H19      H      0.069170000000     0.341740000000     0.771690000000     0          
C37      C      0.028500000000     0.338800000000     0.817600000000     0          
H20      H      0.010870000000     0.320070000000     0.805870000000     0          
C38      C      0.020500000000     0.355500000000     0.855000000000     0          
H21      H      0.996400000000     0.348690000000     0.868170000000     0          
O14      O      0.001100000000     0.398600000000     0.927700000000     0          
C39?     C      0.991900000000     0.343300000000     0.990100000000     0          
C40?     C      0.983600000000     0.307200000000     0.962800000000     0          
C41?     C      0.008700000000     0.273600000000     0.966300000000     0          
H22?     H      0.031520000000     0.274570000000     0.983080000000     0          
C42?     C      0.999600000000     0.238400000000     0.944600000000     0          
H23?     H      0.016110000000     0.215630000000     0.947420000000     0          
C43?     C      0.966600000000     0.236900000000     0.919100000000     0          
C44?     C      0.942600000000     0.272200000000     0.915000000000     0          
H24?     H      0.921530000000     0.272790000000     0.896160000000     0          
C45?     C      0.950400000000     0.306300000000     0.939100000000     0          
H25?     H      0.932630000000     0.328260000000     0.938700000000     0          
O15?     O      0.022400000000     0.343700000000     0.015000000000     0          
O16?     O      0.963900000000     0.371000000000     0.994400000000     0          
O17?     O      0.899700000000     0.416800000000     0.999000000000     0          
O18?     O      0.062400000000     0.416300000000     0.934200000000     0          
O3       O      0.616000000000     0.532400000000     0.543300000000     0          
C8       C      0.622600000000     0.567100000000     0.519900000000     0          
H5       H      0.644170000000     0.583250000000     0.528450000000     0          
C9       C      0.547300000000     0.801800000000     0.396200000000     0          
C10      C      0.525300000000     0.824900000000     0.367500000000     0          
C11      C      0.544300000000     0.857600000000     0.348900000000     0          
H6       H      0.530120000000     0.872450000000     0.329400000000     0          
C12      C      0.584000000000     0.869100000000     0.358400000000     0          
C13      C      0.604900000000     0.847300000000     0.389000000000     0          
C14      C      0.586200000000     0.814200000000     0.406300000000     0          
H7       H      0.600330000000     0.799330000000     0.425770000000     0          
C15      C      0.482000000000     0.814400000000     0.355800000000     0          
C16      C      0.471900000000     0.775700000000     0.343500000000     0          
H8       H      0.491560000000     0.755340000000     0.342740000000     0          
C17      C      0.432000000000     0.767300000000     0.332100000000     0          
H9       H      0.424830000000     0.741010000000     0.324330000000     0          
C18      C      0.402700000000     0.797800000000     0.332300000000     0          
C19      C      0.412100000000     0.837800000000     0.343300000000     0          
H10      H      0.392390000000     0.858150000000     0.343380000000     0          
C20      C      0.453400000000     0.846000000000     0.354600000000     0          
H11      H      0.461270000000     0.872360000000     0.361190000000     0          
C21      C      0.359700000000     0.787900000000     0.319200000000     0          
C22      C      0.605900000000     0.901100000000     0.336500000000     0          
C23      C      0.589000000000     0.919200000000     0.301600000000     0          
H12      H      0.564390000000     0.909250000000     0.291760000000     0          
C24      C      0.606900000000     0.950500000000     0.281500000000     0          
C25      C      0.590900000000     0.964300000000     0.241400000000     0          
C26      C      0.548700000000     0.966600000000     0.234900000000     0          
H13      H      0.530620000000     0.963030000000     0.256310000000     0          
C27      C      0.534700000000     0.974400000000     0.195900000000     0          
H14      H      0.506880000000     0.974770000000     0.190820000000     0          
C28      C      0.561500000000     0.981600000000     0.164900000000     0          
C29      C      0.603100000000     0.981800000000     0.171400000000     0          
H15      H      0.620970000000     0.987990000000     0.150370000000     0          
C30      C      0.617600000000     0.972800000000     0.209600000000     0          
H16      H      0.645470000000     0.972340000000     0.214290000000     0          
C31      C      0.545400000000     0.988000000000     0.122100000000     0          
O5       O      0.475710000000     0.571750000000     0.505840000000     0          
O7       O      0.333290000000     0.815450000000     0.317770000000     0          
O8       O      0.354810000000     0.751070000000     0.310150000000     0          
O9       O      0.568140000000     0.007700000000     0.097510000000     0          
O10      O      0.512210000000     0.971620000000     0.114660000000     0          
Zr1      Zr     0.538220000000     0.565820000000     0.479880000000     0          
O12      O      0.501380000000     0.524720000000     0.451570000000     0          
Zr2      Zr     0.440650000000     0.525230000000     0.467780000000     0          
C32      C      0.418300000000     0.606300000000     0.354000000000     0          
H17      H      0.401370000000     0.586660000000     0.365330000000     0          
C33      C      0.453200000000     0.618000000000     0.373400000000     0          
C34      C      0.464000000000     0.600500000000     0.413900000000     0          
C35      C      0.408800000000     0.624400000000     0.317100000000     0          
H18      H      0.383610000000     0.619620000000     0.305250000000     0          
C36      C      0.436000000000     0.649300000000     0.298000000000     0          
H19      H      0.430830000000     0.658260000000     0.271690000000     0          
C37      C      0.471500000000     0.661200000000     0.317600000000     0          
H20      H      0.489130000000     0.679930000000     0.305870000000     0          
C38      C      0.479500000000     0.644500000000     0.355000000000     0          
H21      H      0.503600000000     0.651310000000     0.368170000000     0          
O14      O      0.498900000000     0.601400000000     0.427700000000     0          
C39?     C      0.508100000000     0.656700000000     0.490100000000     0          
C40?     C      0.516400000000     0.692800000000     0.462800000000     0          
C41?     C      0.491300000000     0.726400000000     0.466300000000     0          
H22?     H      0.468480000000     0.725430000000     0.483080000000     0          
C42?     C      0.500400000000     0.761600000000     0.444600000000     0          
H23?     H      0.483890000000     0.784370000000     0.447420000000     0          
C43?     C      0.533400000000     0.763100000000     0.419100000000     0          
C44?     C      0.557400000000     0.727800000000     0.415000000000     0          
H24?     H      0.578470000000     0.727210000000     0.396160000000     0          
C45?     C      0.549600000000     0.693700000000     0.439100000000     0          
H25?     H      0.567370000000     0.671740000000     0.438700000000     0          
O15?     O      0.477600000000     0.656300000000     0.515000000000     0          
O16?     O      0.536100000000     0.629000000000     0.494400000000     0          
O17?     O      0.600300000000     0.583200000000     0.499000000000     0          
O18?     O      0.437600000000     0.583700000000     0.434200000000     0          


