data_VISYUU

_audit_creation_method RASPA-1.0
_audit_creation_date 2020-4-3
_audit_author_name 'Rocio Bueno-Perez'

_cell_length_a    20.7442
_cell_length_b    20.7442
_cell_length_c    66.4456
_cell_angle_alpha 90
_cell_angle_beta  90
_cell_angle_gamma 90
_cell_volume      28593

_symmetry_cell_setting          tetragonal
_symmetry_space_group_name_Hall 'P 1'
_symmetry_space_group_name_H-M  'P 1'
_symmetry_Int_Tables_number     1

_symmetry_equiv_pos_as_xyz 'x,y,z'

loop_
_atom_site_label
_atom_site_type_symbol
_atom_site_fract_x
_atom_site_fract_y
_atom_site_fract_z
_atom_site_charge
C2       C      0.031800000000     0.450700000000     0.007700000000     0          
C4       C      0.175300000000     0.470300000000     0.016400000000     0          
C5       C      0.242300000000     0.472600000000     0.015150000000     0          
C6       C      0.285400000000     0.441000000000     0.032500000000     0          
C7       C      0.337000000000     0.399600000000     0.027500000000     0          
C8       C      0.375200000000     0.372000000000     0.042800000000     0          
C9       C      0.361700000000     0.386000000000     0.063300000000     0          
C10      C      0.310100000000     0.427000000000     0.068300000000     0          
C11      C      0.271900000000     0.455000000000     0.053000000000     0          
C12      C      0.396900000000     0.360000000000     0.077500000000     0          
O1       O      0.446000000000     0.317000000000     0.072500000000     0          
O2       O      0.385400000000     0.376000000000     0.097600000000     0          
H1       H      0.054300000000     0.415800000000     0.013100000000     0          
H2       H      0.152700000000     0.451100000000     0.027000000000     0          
H3       H      0.345900000000     0.390500000000     0.014000000000     0          
H4       H      0.409300000000     0.344000000000     0.039500000000     0          
H5       H      0.301200000000     0.436000000000     0.081800000000     0          
H6       H      0.237800000000     0.482000000000     0.056300000000     0          
C1       C      0.063600000000     0.500000000000     0.000000000000     0          
C3       C      0.140400000000     0.500000000000     0.000000000000     0          
N1       N      0.275100000000     0.500000000000     0.000000000000     0          
Zr1      Zr     0.500000000000     0.250000000000     0.089250000000     0          
Zr2      Zr     0.416080000000     0.333920000000     0.125000000000     0          
O3       O      0.410100000000     0.250000000000     0.103600000000     0          
O4       O      0.500000000000     0.341700000000     0.106700000000     0          
C2       C      0.799300000000     0.781800000000     0.257700000000     0          
C4       C      0.779700000000     0.925300000000     0.266400000000     0          
C5       C      0.777400000000     0.992300000000     0.265150000000     0          
C6       C      0.809000000000     0.035400000000     0.282500000000     0          
C7       C      0.850400000000     0.087000000000     0.277500000000     0          
C8       C      0.878000000000     0.125200000000     0.292800000000     0          
C9       C      0.864000000000     0.111700000000     0.313300000000     0          
C10      C      0.823000000000     0.060100000000     0.318300000000     0          
C11      C      0.795000000000     0.021900000000     0.303000000000     0          
C12      C      0.890000000000     0.146900000000     0.327500000000     0          
O1       O      0.933000000000     0.196000000000     0.322500000000     0          
O2       O      0.874000000000     0.135400000000     0.347600000000     0          
H1       H      0.834200000000     0.804300000000     0.263100000000     0          
H2       H      0.798900000000     0.902700000000     0.277000000000     0          
H3       H      0.859500000000     0.095900000000     0.264000000000     0          
H4       H      0.906000000000     0.159300000000     0.289500000000     0          
H5       H      0.814000000000     0.051200000000     0.331800000000     0          
H6       H      0.768000000000     0.987800000000     0.306300000000     0          
C1       C      0.750000000000     0.813600000000     0.250000000000     0          
C3       C      0.750000000000     0.890400000000     0.250000000000     0          
N1       N      0.750000000000     0.025100000000     0.250000000000     0          
Zr1      Zr     0.000000000000     0.250000000000     0.339250000000     0          
Zr2      Zr     0.916080000000     0.166080000000     0.375000000000     0          
O3       O      0.000000000000     0.160100000000     0.353600000000     0          
O4       O      0.908300000000     0.250000000000     0.356700000000     0          
C2       C      0.468200000000     0.549300000000     0.507700000000     0          
C4       C      0.324700000000     0.529700000000     0.516400000000     0          
C5       C      0.257700000000     0.527400000000     0.515150000000     0          
C6       C      0.214600000000     0.559000000000     0.532500000000     0          
C7       C      0.163000000000     0.600400000000     0.527500000000     0          
C8       C      0.124800000000     0.628000000000     0.542800000000     0          
C9       C      0.138300000000     0.614000000000     0.563300000000     0          
C10      C      0.189900000000     0.573000000000     0.568300000000     0          
C11      C      0.228100000000     0.545000000000     0.553000000000     0          
C12      C      0.103100000000     0.640000000000     0.577500000000     0          
O1       O      0.054000000000     0.683000000000     0.572500000000     0          
O2       O      0.114600000000     0.624000000000     0.597600000000     0          
H1       H      0.445700000000     0.584200000000     0.513100000000     0          
H2       H      0.347300000000     0.548900000000     0.527000000000     0          
H3       H      0.154100000000     0.609500000000     0.514000000000     0          
H4       H      0.090700000000     0.656000000000     0.539500000000     0          
H5       H      0.198800000000     0.564000000000     0.581800000000     0          
H6       H      0.262200000000     0.518000000000     0.556300000000     0          
C1       C      0.436400000000     0.500000000000     0.500000000000     0          
C3       C      0.359600000000     0.500000000000     0.500000000000     0          
N1       N      0.224900000000     0.500000000000     0.500000000000     0          
Zr1      Zr     0.000000000000     0.750000000000     0.589250000000     0          
Zr2      Zr     0.083920000000     0.666080000000     0.625000000000     0          
O3       O      0.089900000000     0.750000000000     0.603600000000     0          
O4       O      0.000000000000     0.658300000000     0.606700000000     0          
C2       C      0.700700000000     0.218200000000     0.757700000000     0          
C4       C      0.720300000000     0.074700000000     0.766400000000     0          
C5       C      0.722600000000     0.007700000000     0.765150000000     0          
C6       C      0.691000000000     0.964600000000     0.782500000000     0          
C7       C      0.649600000000     0.913000000000     0.777500000000     0          
C8       C      0.622000000000     0.874800000000     0.792800000000     0          
C9       C      0.636000000000     0.888300000000     0.813300000000     0          
C10      C      0.677000000000     0.939900000000     0.818300000000     0          
C11      C      0.705000000000     0.978100000000     0.803000000000     0          
C12      C      0.610000000000     0.853100000000     0.827500000000     0          
O1       O      0.567000000000     0.804000000000     0.822500000000     0          
O2       O      0.626000000000     0.864600000000     0.847600000000     0          
H1       H      0.665800000000     0.195700000000     0.763100000000     0          
H2       H      0.701100000000     0.097300000000     0.777000000000     0          
H3       H      0.640500000000     0.904100000000     0.764000000000     0          
H4       H      0.594000000000     0.840700000000     0.789500000000     0          
H5       H      0.686000000000     0.948800000000     0.831800000000     0          
H6       H      0.732000000000     0.012200000000     0.806300000000     0          
C1       C      0.750000000000     0.186400000000     0.750000000000     0          
C3       C      0.750000000000     0.109600000000     0.750000000000     0          
N1       N      0.750000000000     0.974900000000     0.750000000000     0          
Zr1      Zr     0.500000000000     0.750000000000     0.839250000000     0          
Zr2      Zr     0.583920000000     0.833920000000     0.875000000000     0          
O3       O      0.500000000000     0.839900000000     0.853600000000     0          
O4       O      0.591700000000     0.750000000000     0.856700000000     0          
C2       C      0.031800000000     0.549300000000     0.992300000000     0          
C4       C      0.175300000000     0.529700000000     0.983600000000     0          
C5       C      0.242300000000     0.527400000000     0.984850000000     0          
C6       C      0.285400000000     0.559000000000     0.967500000000     0          
C7       C      0.337000000000     0.600400000000     0.972500000000     0          
C8       C      0.375200000000     0.628000000000     0.957200000000     0          
C9       C      0.361700000000     0.614000000000     0.936700000000     0          
C10      C      0.310100000000     0.573000000000     0.931700000000     0          
C11      C      0.271900000000     0.545000000000     0.947000000000     0          
C12      C      0.396900000000     0.640000000000     0.922500000000     0          
O1       O      0.446000000000     0.683000000000     0.927500000000     0          
O2       O      0.385400000000     0.624000000000     0.902400000000     0          
H1       H      0.054300000000     0.584200000000     0.986900000000     0          
H2       H      0.152700000000     0.548900000000     0.973000000000     0          
H3       H      0.345900000000     0.609500000000     0.986000000000     0          
H4       H      0.409300000000     0.656000000000     0.960500000000     0          
H5       H      0.301200000000     0.564000000000     0.918200000000     0          
H6       H      0.237800000000     0.518000000000     0.943700000000     0          
Zr1      Zr     0.500000000000     0.750000000000     0.910750000000     0          
Zr2      Zr     0.416080000000     0.666080000000     0.875000000000     0          
O3       O      0.410100000000     0.750000000000     0.896400000000     0          
O4       O      0.500000000000     0.658300000000     0.893300000000     0          
C2       C      0.700700000000     0.781800000000     0.242300000000     0          
C4       C      0.720300000000     0.925300000000     0.233600000000     0          
C5       C      0.722600000000     0.992300000000     0.234850000000     0          
C6       C      0.691000000000     0.035400000000     0.217500000000     0          
C7       C      0.649600000000     0.087000000000     0.222500000000     0          
C8       C      0.622000000000     0.125200000000     0.207200000000     0          
C9       C      0.636000000000     0.111700000000     0.186700000000     0          
C10      C      0.677000000000     0.060100000000     0.181700000000     0          
C11      C      0.705000000000     0.021900000000     0.197000000000     0          
C12      C      0.610000000000     0.146900000000     0.172500000000     0          
O1       O      0.567000000000     0.196000000000     0.177500000000     0          
O2       O      0.626000000000     0.135400000000     0.152400000000     0          
H1       H      0.665800000000     0.804300000000     0.236900000000     0          
H2       H      0.701100000000     0.902700000000     0.223000000000     0          
H3       H      0.640500000000     0.095900000000     0.236000000000     0          
H4       H      0.594000000000     0.159300000000     0.210500000000     0          
H5       H      0.686000000000     0.051200000000     0.168200000000     0          
H6       H      0.732000000000     0.987800000000     0.193700000000     0          
Zr1      Zr     0.500000000000     0.250000000000     0.160750000000     0          
Zr2      Zr     0.583920000000     0.166080000000     0.125000000000     0          
O3       O      0.500000000000     0.160100000000     0.146400000000     0          
O4       O      0.591700000000     0.250000000000     0.143300000000     0          
C2       C      0.468200000000     0.450700000000     0.492300000000     0          
C4       C      0.324700000000     0.470300000000     0.483600000000     0          
C5       C      0.257700000000     0.472600000000     0.484850000000     0          
C6       C      0.214600000000     0.441000000000     0.467500000000     0          
C7       C      0.163000000000     0.399600000000     0.472500000000     0          
C8       C      0.124800000000     0.372000000000     0.457200000000     0          
C9       C      0.138300000000     0.386000000000     0.436700000000     0          
C10      C      0.189900000000     0.427000000000     0.431700000000     0          
C11      C      0.228100000000     0.455000000000     0.447000000000     0          
C12      C      0.103100000000     0.360000000000     0.422500000000     0          
O1       O      0.054000000000     0.317000000000     0.427500000000     0          
O2       O      0.114600000000     0.376000000000     0.402400000000     0          
H1       H      0.445700000000     0.415800000000     0.486900000000     0          
H2       H      0.347300000000     0.451100000000     0.473000000000     0          
H3       H      0.154100000000     0.390500000000     0.486000000000     0          
H4       H      0.090700000000     0.344000000000     0.460500000000     0          
H5       H      0.198800000000     0.436000000000     0.418200000000     0          
H6       H      0.262200000000     0.482000000000     0.443700000000     0          
Zr1      Zr     0.000000000000     0.250000000000     0.410750000000     0          
Zr2      Zr     0.083920000000     0.333920000000     0.375000000000     0          
O3       O      0.089900000000     0.250000000000     0.396400000000     0          
O4       O      0.000000000000     0.341700000000     0.393300000000     0          
C2       C      0.799300000000     0.218200000000     0.742300000000     0          
C4       C      0.779700000000     0.074700000000     0.733600000000     0          
C5       C      0.777400000000     0.007700000000     0.734850000000     0          
C6       C      0.809000000000     0.964600000000     0.717500000000     0          
C7       C      0.850400000000     0.913000000000     0.722500000000     0          
C8       C      0.878000000000     0.874800000000     0.707200000000     0          
C9       C      0.864000000000     0.888300000000     0.686700000000     0          
C10      C      0.823000000000     0.939900000000     0.681700000000     0          
C11      C      0.795000000000     0.978100000000     0.697000000000     0          
C12      C      0.890000000000     0.853100000000     0.672500000000     0          
O1       O      0.933000000000     0.804000000000     0.677500000000     0          
O2       O      0.874000000000     0.864600000000     0.652400000000     0          
H1       H      0.834200000000     0.195700000000     0.736900000000     0          
H2       H      0.798900000000     0.097300000000     0.723000000000     0          
H3       H      0.859500000000     0.904100000000     0.736000000000     0          
H4       H      0.906000000000     0.840700000000     0.710500000000     0          
H5       H      0.814000000000     0.948800000000     0.668200000000     0          
H6       H      0.768000000000     0.012200000000     0.693700000000     0          
Zr1      Zr     0.000000000000     0.750000000000     0.660750000000     0          
Zr2      Zr     0.916080000000     0.833920000000     0.625000000000     0          
O3       O      0.000000000000     0.839900000000     0.646400000000     0          
O4       O      0.908300000000     0.750000000000     0.643300000000     0          
C2       C      0.968200000000     0.549300000000     0.992300000000     0          
C4       C      0.824700000000     0.529700000000     0.983600000000     0          
C5       C      0.757700000000     0.527400000000     0.984850000000     0          
C6       C      0.714600000000     0.559000000000     0.967500000000     0          
C7       C      0.663000000000     0.600400000000     0.972500000000     0          
C8       C      0.624800000000     0.628000000000     0.957200000000     0          
C9       C      0.638300000000     0.614000000000     0.936700000000     0          
C10      C      0.689900000000     0.573000000000     0.931700000000     0          
C11      C      0.728100000000     0.545000000000     0.947000000000     0          
C12      C      0.603100000000     0.640000000000     0.922500000000     0          
O1       O      0.554000000000     0.683000000000     0.927500000000     0          
O2       O      0.614600000000     0.624000000000     0.902400000000     0          
H1       H      0.945700000000     0.584200000000     0.986900000000     0          
H2       H      0.847300000000     0.548900000000     0.973000000000     0          
H3       H      0.654100000000     0.609500000000     0.986000000000     0          
H4       H      0.590700000000     0.656000000000     0.960500000000     0          
H5       H      0.698800000000     0.564000000000     0.918200000000     0          
H6       H      0.762200000000     0.518000000000     0.943700000000     0          
C1       C      0.936400000000     0.500000000000     0.000000000000     0          
C3       C      0.859600000000     0.500000000000     0.000000000000     0          
N1       N      0.724900000000     0.500000000000     0.000000000000     0          
Zr2      Zr     0.583920000000     0.666080000000     0.875000000000     0          
O3       O      0.589900000000     0.750000000000     0.896400000000     0          
C2       C      0.200700000000     0.218200000000     0.742300000000     0          
C4       C      0.220300000000     0.074700000000     0.733600000000     0          
C5       C      0.222600000000     0.007700000000     0.734850000000     0          
C6       C      0.191000000000     0.964600000000     0.717500000000     0          
C7       C      0.149600000000     0.913000000000     0.722500000000     0          
C8       C      0.122000000000     0.874800000000     0.707200000000     0          
C9       C      0.136000000000     0.888300000000     0.686700000000     0          
C10      C      0.177000000000     0.939900000000     0.681700000000     0          
C11      C      0.205000000000     0.978100000000     0.697000000000     0          
C12      C      0.110000000000     0.853100000000     0.672500000000     0          
O1       O      0.067000000000     0.804000000000     0.677500000000     0          
O2       O      0.126000000000     0.864600000000     0.652400000000     0          
H1       H      0.165800000000     0.195700000000     0.736900000000     0          
H2       H      0.201100000000     0.097300000000     0.723000000000     0          
H3       H      0.140500000000     0.904100000000     0.736000000000     0          
H4       H      0.094000000000     0.840700000000     0.710500000000     0          
H5       H      0.186000000000     0.948800000000     0.668200000000     0          
H6       H      0.232000000000     0.012200000000     0.693700000000     0          
C1       C      0.250000000000     0.186400000000     0.750000000000     0          
C3       C      0.250000000000     0.109600000000     0.750000000000     0          
N1       N      0.250000000000     0.974900000000     0.750000000000     0          
Zr2      Zr     0.083920000000     0.833920000000     0.625000000000     0          
O4       O      0.091700000000     0.750000000000     0.643300000000     0          
C2       C      0.531800000000     0.450700000000     0.492300000000     0          
C4       C      0.675300000000     0.470300000000     0.483600000000     0          
C5       C      0.742300000000     0.472600000000     0.484850000000     0          
C6       C      0.785400000000     0.441000000000     0.467500000000     0          
C7       C      0.837000000000     0.399600000000     0.472500000000     0          
C8       C      0.875200000000     0.372000000000     0.457200000000     0          
C9       C      0.861700000000     0.386000000000     0.436700000000     0          
C10      C      0.810100000000     0.427000000000     0.431700000000     0          
C11      C      0.771900000000     0.455000000000     0.447000000000     0          
C12      C      0.896900000000     0.360000000000     0.422500000000     0          
O1       O      0.946000000000     0.317000000000     0.427500000000     0          
O2       O      0.885400000000     0.376000000000     0.402400000000     0          
H1       H      0.554300000000     0.415800000000     0.486900000000     0          
H2       H      0.652700000000     0.451100000000     0.473000000000     0          
H3       H      0.845900000000     0.390500000000     0.486000000000     0          
H4       H      0.909300000000     0.344000000000     0.460500000000     0          
H5       H      0.801200000000     0.436000000000     0.418200000000     0          
H6       H      0.737800000000     0.482000000000     0.443700000000     0          
C1       C      0.563600000000     0.500000000000     0.500000000000     0          
C3       C      0.640400000000     0.500000000000     0.500000000000     0          
N1       N      0.775100000000     0.500000000000     0.500000000000     0          
Zr2      Zr     0.916080000000     0.333920000000     0.375000000000     0          
O3       O      0.910100000000     0.250000000000     0.396400000000     0          
C2       C      0.299300000000     0.781800000000     0.242300000000     0          
C4       C      0.279700000000     0.925300000000     0.233600000000     0          
C5       C      0.277400000000     0.992300000000     0.234850000000     0          
C6       C      0.309000000000     0.035400000000     0.217500000000     0          
C7       C      0.350400000000     0.087000000000     0.222500000000     0          
C8       C      0.378000000000     0.125200000000     0.207200000000     0          
C9       C      0.364000000000     0.111700000000     0.186700000000     0          
C10      C      0.323000000000     0.060100000000     0.181700000000     0          
C11      C      0.295000000000     0.021900000000     0.197000000000     0          
C12      C      0.390000000000     0.146900000000     0.172500000000     0          
O1       O      0.433000000000     0.196000000000     0.177500000000     0          
O2       O      0.374000000000     0.135400000000     0.152400000000     0          
H1       H      0.334200000000     0.804300000000     0.236900000000     0          
H2       H      0.298900000000     0.902700000000     0.223000000000     0          
H3       H      0.359500000000     0.095900000000     0.236000000000     0          
H4       H      0.406000000000     0.159300000000     0.210500000000     0          
H5       H      0.314000000000     0.051200000000     0.168200000000     0          
H6       H      0.268000000000     0.987800000000     0.193700000000     0          
C1       C      0.250000000000     0.813600000000     0.250000000000     0          
C3       C      0.250000000000     0.890400000000     0.250000000000     0          
N1       N      0.250000000000     0.025100000000     0.250000000000     0          
Zr2      Zr     0.416080000000     0.166080000000     0.125000000000     0          
O4       O      0.408300000000     0.250000000000     0.143300000000     0          
C2       C      0.968200000000     0.450700000000     0.007700000000     0          
C4       C      0.824700000000     0.470300000000     0.016400000000     0          
C5       C      0.757700000000     0.472600000000     0.015150000000     0          
C6       C      0.714600000000     0.441000000000     0.032500000000     0          
C7       C      0.663000000000     0.399600000000     0.027500000000     0          
C8       C      0.624800000000     0.372000000000     0.042800000000     0          
C9       C      0.638300000000     0.386000000000     0.063300000000     0          
C10      C      0.689900000000     0.427000000000     0.068300000000     0          
C11      C      0.728100000000     0.455000000000     0.053000000000     0          
C12      C      0.603100000000     0.360000000000     0.077500000000     0          
O1       O      0.554000000000     0.317000000000     0.072500000000     0          
O2       O      0.614600000000     0.376000000000     0.097600000000     0          
H1       H      0.945700000000     0.415800000000     0.013100000000     0          
H2       H      0.847300000000     0.451100000000     0.027000000000     0          
H3       H      0.654100000000     0.390500000000     0.014000000000     0          
H4       H      0.590700000000     0.344000000000     0.039500000000     0          
H5       H      0.698800000000     0.436000000000     0.081800000000     0          
H6       H      0.762200000000     0.482000000000     0.056300000000     0          
Zr2      Zr     0.583920000000     0.333920000000     0.125000000000     0          
O3       O      0.589900000000     0.250000000000     0.103600000000     0          
C2       C      0.299300000000     0.218200000000     0.757700000000     0          
C4       C      0.279700000000     0.074700000000     0.766400000000     0          
C5       C      0.277400000000     0.007700000000     0.765150000000     0          
C6       C      0.309000000000     0.964600000000     0.782500000000     0          
C7       C      0.350400000000     0.913000000000     0.777500000000     0          
C8       C      0.378000000000     0.874800000000     0.792800000000     0          
C9       C      0.364000000000     0.888300000000     0.813300000000     0          
C10      C      0.323000000000     0.939900000000     0.818300000000     0          
C11      C      0.295000000000     0.978100000000     0.803000000000     0          
C12      C      0.390000000000     0.853100000000     0.827500000000     0          
O1       O      0.433000000000     0.804000000000     0.822500000000     0          
O2       O      0.374000000000     0.864600000000     0.847600000000     0          
H1       H      0.334200000000     0.195700000000     0.763100000000     0          
H2       H      0.298900000000     0.097300000000     0.777000000000     0          
H3       H      0.359500000000     0.904100000000     0.764000000000     0          
H4       H      0.406000000000     0.840700000000     0.789500000000     0          
H5       H      0.314000000000     0.948800000000     0.831800000000     0          
H6       H      0.268000000000     0.012200000000     0.806300000000     0          
Zr2      Zr     0.416080000000     0.833920000000     0.875000000000     0          
O4       O      0.408300000000     0.750000000000     0.856700000000     0          
C2       C      0.531800000000     0.549300000000     0.507700000000     0          
C4       C      0.675300000000     0.529700000000     0.516400000000     0          
C5       C      0.742300000000     0.527400000000     0.515150000000     0          
C6       C      0.785400000000     0.559000000000     0.532500000000     0          
C7       C      0.837000000000     0.600400000000     0.527500000000     0          
C8       C      0.875200000000     0.628000000000     0.542800000000     0          
C9       C      0.861700000000     0.614000000000     0.563300000000     0          
C10      C      0.810100000000     0.573000000000     0.568300000000     0          
C11      C      0.771900000000     0.545000000000     0.553000000000     0          
C12      C      0.896900000000     0.640000000000     0.577500000000     0          
O1       O      0.946000000000     0.683000000000     0.572500000000     0          
O2       O      0.885400000000     0.624000000000     0.597600000000     0          
H1       H      0.554300000000     0.584200000000     0.513100000000     0          
H2       H      0.652700000000     0.548900000000     0.527000000000     0          
H3       H      0.845900000000     0.609500000000     0.514000000000     0          
H4       H      0.909300000000     0.656000000000     0.539500000000     0          
H5       H      0.801200000000     0.564000000000     0.581800000000     0          
H6       H      0.737800000000     0.518000000000     0.556300000000     0          
Zr2      Zr     0.916080000000     0.666080000000     0.625000000000     0          
O3       O      0.910100000000     0.750000000000     0.603600000000     0          
C2       C      0.200700000000     0.781800000000     0.257700000000     0          
C4       C      0.220300000000     0.925300000000     0.266400000000     0          
C5       C      0.222600000000     0.992300000000     0.265150000000     0          
C6       C      0.191000000000     0.035400000000     0.282500000000     0          
C7       C      0.149600000000     0.087000000000     0.277500000000     0          
C8       C      0.122000000000     0.125200000000     0.292800000000     0          
C9       C      0.136000000000     0.111700000000     0.313300000000     0          
C10      C      0.177000000000     0.060100000000     0.318300000000     0          
C11      C      0.205000000000     0.021900000000     0.303000000000     0          
C12      C      0.110000000000     0.146900000000     0.327500000000     0          
O1       O      0.067000000000     0.196000000000     0.322500000000     0          
O2       O      0.126000000000     0.135400000000     0.347600000000     0          
H1       H      0.165800000000     0.804300000000     0.263100000000     0          
H2       H      0.201100000000     0.902700000000     0.277000000000     0          
H3       H      0.140500000000     0.095900000000     0.264000000000     0          
H4       H      0.094000000000     0.159300000000     0.289500000000     0          
H5       H      0.186000000000     0.051200000000     0.331800000000     0          
H6       H      0.232000000000     0.987800000000     0.306300000000     0          
Zr2      Zr     0.083920000000     0.166080000000     0.375000000000     0          
O4       O      0.091700000000     0.250000000000     0.356700000000     0          
C2       C      0.531800000000     0.950700000000     0.507700000000     0          
C4       C      0.675300000000     0.970300000000     0.516400000000     0          
C5       C      0.742300000000     0.972600000000     0.515150000000     0          
C6       C      0.785400000000     0.941000000000     0.532500000000     0          
C7       C      0.837000000000     0.899600000000     0.527500000000     0          
C8       C      0.875200000000     0.872000000000     0.542800000000     0          
C9       C      0.861700000000     0.886000000000     0.563300000000     0          
C10      C      0.810100000000     0.927000000000     0.568300000000     0          
C11      C      0.771900000000     0.955000000000     0.553000000000     0          
C12      C      0.896900000000     0.860000000000     0.577500000000     0          
O1       O      0.946000000000     0.817000000000     0.572500000000     0          
O2       O      0.885400000000     0.876000000000     0.597600000000     0          
H1       H      0.554300000000     0.915800000000     0.513100000000     0          
H2       H      0.652700000000     0.951100000000     0.527000000000     0          
H3       H      0.845900000000     0.890500000000     0.514000000000     0          
H4       H      0.909300000000     0.844000000000     0.539500000000     0          
H5       H      0.801200000000     0.936000000000     0.581800000000     0          
H6       H      0.737800000000     0.982000000000     0.556300000000     0          
C1       C      0.563600000000     0.000000000000     0.500000000000     0          
C3       C      0.640400000000     0.000000000000     0.500000000000     0          
N1       N      0.775100000000     0.000000000000     0.500000000000     0          
O4       O      0.000000000000     0.841700000000     0.606700000000     0          
C2       C      0.299300000000     0.281800000000     0.757700000000     0          
C4       C      0.279700000000     0.425300000000     0.766400000000     0          
C5       C      0.277400000000     0.492300000000     0.765150000000     0          
C6       C      0.309000000000     0.535400000000     0.782500000000     0          
C7       C      0.350400000000     0.587000000000     0.777500000000     0          
C8       C      0.378000000000     0.625200000000     0.792800000000     0          
C9       C      0.364000000000     0.611700000000     0.813300000000     0          
C10      C      0.323000000000     0.560100000000     0.818300000000     0          
C11      C      0.295000000000     0.521900000000     0.803000000000     0          
C12      C      0.390000000000     0.646900000000     0.827500000000     0          
O1       O      0.433000000000     0.696000000000     0.822500000000     0          
O2       O      0.374000000000     0.635400000000     0.847600000000     0          
H1       H      0.334200000000     0.304300000000     0.763100000000     0          
H2       H      0.298900000000     0.402700000000     0.777000000000     0          
H3       H      0.359500000000     0.595900000000     0.764000000000     0          
H4       H      0.406000000000     0.659300000000     0.789500000000     0          
H5       H      0.314000000000     0.551200000000     0.831800000000     0          
H6       H      0.268000000000     0.487800000000     0.806300000000     0          
C1       C      0.250000000000     0.313600000000     0.750000000000     0          
C3       C      0.250000000000     0.390400000000     0.750000000000     0          
N1       N      0.250000000000     0.525100000000     0.750000000000     0          
O3       O      0.500000000000     0.660100000000     0.853600000000     0          
C2       C      0.968200000000     0.049300000000     0.007700000000     0          
C4       C      0.824700000000     0.029700000000     0.016400000000     0          
C5       C      0.757700000000     0.027400000000     0.015150000000     0          
C6       C      0.714600000000     0.059000000000     0.032500000000     0          
C7       C      0.663000000000     0.100400000000     0.027500000000     0          
C8       C      0.624800000000     0.128000000000     0.042800000000     0          
C9       C      0.638300000000     0.114000000000     0.063300000000     0          
C10      C      0.689900000000     0.073000000000     0.068300000000     0          
C11      C      0.728100000000     0.045000000000     0.053000000000     0          
C12      C      0.603100000000     0.140000000000     0.077500000000     0          
O1       O      0.554000000000     0.183000000000     0.072500000000     0          
O2       O      0.614600000000     0.124000000000     0.097600000000     0          
H1       H      0.945700000000     0.084200000000     0.013100000000     0          
H2       H      0.847300000000     0.048900000000     0.027000000000     0          
H3       H      0.654100000000     0.109500000000     0.014000000000     0          
H4       H      0.590700000000     0.156000000000     0.039500000000     0          
H5       H      0.698800000000     0.064000000000     0.081800000000     0          
H6       H      0.762200000000     0.018000000000     0.056300000000     0          
C1       C      0.936400000000     0.000000000000     0.000000000000     0          
C3       C      0.859600000000     0.000000000000     0.000000000000     0          
N1       N      0.724900000000     0.000000000000     0.000000000000     0          
O4       O      0.500000000000     0.158300000000     0.106700000000     0          
C2       C      0.200700000000     0.718200000000     0.257700000000     0          
C4       C      0.220300000000     0.574700000000     0.266400000000     0          
C5       C      0.222600000000     0.507700000000     0.265150000000     0          
C6       C      0.191000000000     0.464600000000     0.282500000000     0          
C7       C      0.149600000000     0.413000000000     0.277500000000     0          
C8       C      0.122000000000     0.374800000000     0.292800000000     0          
C9       C      0.136000000000     0.388300000000     0.313300000000     0          
C10      C      0.177000000000     0.439900000000     0.318300000000     0          
C11      C      0.205000000000     0.478100000000     0.303000000000     0          
C12      C      0.110000000000     0.353100000000     0.327500000000     0          
O1       O      0.067000000000     0.304000000000     0.322500000000     0          
O2       O      0.126000000000     0.364600000000     0.347600000000     0          
H1       H      0.165800000000     0.695700000000     0.263100000000     0          
H2       H      0.201100000000     0.597300000000     0.277000000000     0          
H3       H      0.140500000000     0.404100000000     0.264000000000     0          
H4       H      0.094000000000     0.340700000000     0.289500000000     0          
H5       H      0.186000000000     0.448800000000     0.331800000000     0          
H6       H      0.232000000000     0.512200000000     0.306300000000     0          
C1       C      0.250000000000     0.686400000000     0.250000000000     0          
C3       C      0.250000000000     0.609600000000     0.250000000000     0          
N1       N      0.250000000000     0.474900000000     0.250000000000     0          
O3       O      0.000000000000     0.339900000000     0.353600000000     0          
C2       C      0.531800000000     0.049300000000     0.492300000000     0          
C4       C      0.675300000000     0.029700000000     0.483600000000     0          
C5       C      0.742300000000     0.027400000000     0.484850000000     0          
C6       C      0.785400000000     0.059000000000     0.467500000000     0          
C7       C      0.837000000000     0.100400000000     0.472500000000     0          
C8       C      0.875200000000     0.128000000000     0.457200000000     0          
C9       C      0.861700000000     0.114000000000     0.436700000000     0          
C10      C      0.810100000000     0.073000000000     0.431700000000     0          
C11      C      0.771900000000     0.045000000000     0.447000000000     0          
C12      C      0.896900000000     0.140000000000     0.422500000000     0          
O1       O      0.946000000000     0.183000000000     0.427500000000     0          
O2       O      0.885400000000     0.124000000000     0.402400000000     0          
H1       H      0.554300000000     0.084200000000     0.486900000000     0          
H2       H      0.652700000000     0.048900000000     0.473000000000     0          
H3       H      0.845900000000     0.109500000000     0.486000000000     0          
H4       H      0.909300000000     0.156000000000     0.460500000000     0          
H5       H      0.801200000000     0.064000000000     0.418200000000     0          
H6       H      0.737800000000     0.018000000000     0.443700000000     0          
O4       O      0.000000000000     0.158300000000     0.393300000000     0          
C2       C      0.200700000000     0.281800000000     0.742300000000     0          
C4       C      0.220300000000     0.425300000000     0.733600000000     0          
C5       C      0.222600000000     0.492300000000     0.734850000000     0          
C6       C      0.191000000000     0.535400000000     0.717500000000     0          
C7       C      0.149600000000     0.587000000000     0.722500000000     0          
C8       C      0.122000000000     0.625200000000     0.707200000000     0          
C9       C      0.136000000000     0.611700000000     0.686700000000     0          
C10      C      0.177000000000     0.560100000000     0.681700000000     0          
C11      C      0.205000000000     0.521900000000     0.697000000000     0          
C12      C      0.110000000000     0.646900000000     0.672500000000     0          
O1       O      0.067000000000     0.696000000000     0.677500000000     0          
O2       O      0.126000000000     0.635400000000     0.652400000000     0          
H1       H      0.165800000000     0.304300000000     0.736900000000     0          
H2       H      0.201100000000     0.402700000000     0.723000000000     0          
H3       H      0.140500000000     0.595900000000     0.736000000000     0          
H4       H      0.094000000000     0.659300000000     0.710500000000     0          
H5       H      0.186000000000     0.551200000000     0.668200000000     0          
H6       H      0.232000000000     0.487800000000     0.693700000000     0          
O3       O      0.000000000000     0.660100000000     0.646400000000     0          
C2       C      0.968200000000     0.950700000000     0.992300000000     0          
C4       C      0.824700000000     0.970300000000     0.983600000000     0          
C5       C      0.757700000000     0.972600000000     0.984850000000     0          
C6       C      0.714600000000     0.941000000000     0.967500000000     0          
C7       C      0.663000000000     0.899600000000     0.972500000000     0          
C8       C      0.624800000000     0.872000000000     0.957200000000     0          
C9       C      0.638300000000     0.886000000000     0.936700000000     0          
C10      C      0.689900000000     0.927000000000     0.931700000000     0          
C11      C      0.728100000000     0.955000000000     0.947000000000     0          
C12      C      0.603100000000     0.860000000000     0.922500000000     0          
O1       O      0.554000000000     0.817000000000     0.927500000000     0          
O2       O      0.614600000000     0.876000000000     0.902400000000     0          
H1       H      0.945700000000     0.915800000000     0.986900000000     0          
H2       H      0.847300000000     0.951100000000     0.973000000000     0          
H3       H      0.654100000000     0.890500000000     0.986000000000     0          
H4       H      0.590700000000     0.844000000000     0.960500000000     0          
H5       H      0.698800000000     0.936000000000     0.918200000000     0          
H6       H      0.762200000000     0.982000000000     0.943700000000     0          
O4       O      0.500000000000     0.841700000000     0.893300000000     0          
C2       C      0.299300000000     0.718200000000     0.242300000000     0          
C4       C      0.279700000000     0.574700000000     0.233600000000     0          
C5       C      0.277400000000     0.507700000000     0.234850000000     0          
C6       C      0.309000000000     0.464600000000     0.217500000000     0          
C7       C      0.350400000000     0.413000000000     0.222500000000     0          
C8       C      0.378000000000     0.374800000000     0.207200000000     0          
C9       C      0.364000000000     0.388300000000     0.186700000000     0          
C10      C      0.323000000000     0.439900000000     0.181700000000     0          
C11      C      0.295000000000     0.478100000000     0.197000000000     0          
C12      C      0.390000000000     0.353100000000     0.172500000000     0          
O1       O      0.433000000000     0.304000000000     0.177500000000     0          
O2       O      0.374000000000     0.364600000000     0.152400000000     0          
H1       H      0.334200000000     0.695700000000     0.236900000000     0          
H2       H      0.298900000000     0.597300000000     0.223000000000     0          
H3       H      0.359500000000     0.404100000000     0.236000000000     0          
H4       H      0.406000000000     0.340700000000     0.210500000000     0          
H5       H      0.314000000000     0.448800000000     0.168200000000     0          
H6       H      0.268000000000     0.512200000000     0.193700000000     0          
O3       O      0.500000000000     0.339900000000     0.146400000000     0          
C2       C      0.468200000000     0.049300000000     0.492300000000     0          
C4       C      0.324700000000     0.029700000000     0.483600000000     0          
C5       C      0.257700000000     0.027400000000     0.484850000000     0          
C6       C      0.214600000000     0.059000000000     0.467500000000     0          
C7       C      0.163000000000     0.100400000000     0.472500000000     0          
C8       C      0.124800000000     0.128000000000     0.457200000000     0          
C9       C      0.138300000000     0.114000000000     0.436700000000     0          
C10      C      0.189900000000     0.073000000000     0.431700000000     0          
C11      C      0.228100000000     0.045000000000     0.447000000000     0          
C12      C      0.103100000000     0.140000000000     0.422500000000     0          
O1       O      0.054000000000     0.183000000000     0.427500000000     0          
O2       O      0.114600000000     0.124000000000     0.402400000000     0          
H1       H      0.445700000000     0.084200000000     0.486900000000     0          
H2       H      0.347300000000     0.048900000000     0.473000000000     0          
H3       H      0.154100000000     0.109500000000     0.486000000000     0          
H4       H      0.090700000000     0.156000000000     0.460500000000     0          
H5       H      0.198800000000     0.064000000000     0.418200000000     0          
H6       H      0.262200000000     0.018000000000     0.443700000000     0          
C1       C      0.436400000000     0.000000000000     0.500000000000     0          
C3       C      0.359600000000     0.000000000000     0.500000000000     0          
N1       N      0.224900000000     0.000000000000     0.500000000000     0          
C2       C      0.700700000000     0.718200000000     0.242300000000     0          
C4       C      0.720300000000     0.574700000000     0.233600000000     0          
C5       C      0.722600000000     0.507700000000     0.234850000000     0          
C6       C      0.691000000000     0.464600000000     0.217500000000     0          
C7       C      0.649600000000     0.413000000000     0.222500000000     0          
C8       C      0.622000000000     0.374800000000     0.207200000000     0          
C9       C      0.636000000000     0.388300000000     0.186700000000     0          
C10      C      0.677000000000     0.439900000000     0.181700000000     0          
C11      C      0.705000000000     0.478100000000     0.197000000000     0          
C12      C      0.610000000000     0.353100000000     0.172500000000     0          
O1       O      0.567000000000     0.304000000000     0.177500000000     0          
O2       O      0.626000000000     0.364600000000     0.152400000000     0          
H1       H      0.665800000000     0.695700000000     0.236900000000     0          
H2       H      0.701100000000     0.597300000000     0.223000000000     0          
H3       H      0.640500000000     0.404100000000     0.236000000000     0          
H4       H      0.594000000000     0.340700000000     0.210500000000     0          
H5       H      0.686000000000     0.448800000000     0.168200000000     0          
H6       H      0.732000000000     0.512200000000     0.193700000000     0          
C1       C      0.750000000000     0.686400000000     0.250000000000     0          
C3       C      0.750000000000     0.609600000000     0.250000000000     0          
N1       N      0.750000000000     0.474900000000     0.250000000000     0          
C2       C      0.031800000000     0.950700000000     0.992300000000     0          
C4       C      0.175300000000     0.970300000000     0.983600000000     0          
C5       C      0.242300000000     0.972600000000     0.984850000000     0          
C6       C      0.285400000000     0.941000000000     0.967500000000     0          
C7       C      0.337000000000     0.899600000000     0.972500000000     0          
C8       C      0.375200000000     0.872000000000     0.957200000000     0          
C9       C      0.361700000000     0.886000000000     0.936700000000     0          
C10      C      0.310100000000     0.927000000000     0.931700000000     0          
C11      C      0.271900000000     0.955000000000     0.947000000000     0          
C12      C      0.396900000000     0.860000000000     0.922500000000     0          
O1       O      0.446000000000     0.817000000000     0.927500000000     0          
O2       O      0.385400000000     0.876000000000     0.902400000000     0          
H1       H      0.054300000000     0.915800000000     0.986900000000     0          
H2       H      0.152700000000     0.951100000000     0.973000000000     0          
H3       H      0.345900000000     0.890500000000     0.986000000000     0          
H4       H      0.409300000000     0.844000000000     0.960500000000     0          
H5       H      0.301200000000     0.936000000000     0.918200000000     0          
H6       H      0.237800000000     0.982000000000     0.943700000000     0          
C1       C      0.063600000000     0.000000000000     0.000000000000     0          
C3       C      0.140400000000     0.000000000000     0.000000000000     0          
N1       N      0.275100000000     0.000000000000     0.000000000000     0          
C2       C      0.799300000000     0.281800000000     0.742300000000     0          
C4       C      0.779700000000     0.425300000000     0.733600000000     0          
C5       C      0.777400000000     0.492300000000     0.734850000000     0          
C6       C      0.809000000000     0.535400000000     0.717500000000     0          
C7       C      0.850400000000     0.587000000000     0.722500000000     0          
C8       C      0.878000000000     0.625200000000     0.707200000000     0          
C9       C      0.864000000000     0.611700000000     0.686700000000     0          
C10      C      0.823000000000     0.560100000000     0.681700000000     0          
C11      C      0.795000000000     0.521900000000     0.697000000000     0          
C12      C      0.890000000000     0.646900000000     0.672500000000     0          
O1       O      0.933000000000     0.696000000000     0.677500000000     0          
O2       O      0.874000000000     0.635400000000     0.652400000000     0          
H1       H      0.834200000000     0.304300000000     0.736900000000     0          
H2       H      0.798900000000     0.402700000000     0.723000000000     0          
H3       H      0.859500000000     0.595900000000     0.736000000000     0          
H4       H      0.906000000000     0.659300000000     0.710500000000     0          
H5       H      0.814000000000     0.551200000000     0.668200000000     0          
H6       H      0.768000000000     0.487800000000     0.693700000000     0          
C1       C      0.750000000000     0.313600000000     0.750000000000     0          
C3       C      0.750000000000     0.390400000000     0.750000000000     0          
N1       N      0.750000000000     0.525100000000     0.750000000000     0          
C2       C      0.468200000000     0.950700000000     0.507700000000     0          
C4       C      0.324700000000     0.970300000000     0.516400000000     0          
C5       C      0.257700000000     0.972600000000     0.515150000000     0          
C6       C      0.214600000000     0.941000000000     0.532500000000     0          
C7       C      0.163000000000     0.899600000000     0.527500000000     0          
C8       C      0.124800000000     0.872000000000     0.542800000000     0          
C9       C      0.138300000000     0.886000000000     0.563300000000     0          
C10      C      0.189900000000     0.927000000000     0.568300000000     0          
C11      C      0.228100000000     0.955000000000     0.553000000000     0          
C12      C      0.103100000000     0.860000000000     0.577500000000     0          
O1       O      0.054000000000     0.817000000000     0.572500000000     0          
O2       O      0.114600000000     0.876000000000     0.597600000000     0          
H1       H      0.445700000000     0.915800000000     0.513100000000     0          
H2       H      0.347300000000     0.951100000000     0.527000000000     0          
H3       H      0.154100000000     0.890500000000     0.514000000000     0          
H4       H      0.090700000000     0.844000000000     0.539500000000     0          
H5       H      0.198800000000     0.936000000000     0.581800000000     0          
H6       H      0.262200000000     0.982000000000     0.556300000000     0          
C2       C      0.799300000000     0.718200000000     0.257700000000     0          
C4       C      0.779700000000     0.574700000000     0.266400000000     0          
C5       C      0.777400000000     0.507700000000     0.265150000000     0          
C6       C      0.809000000000     0.464600000000     0.282500000000     0          
C7       C      0.850400000000     0.413000000000     0.277500000000     0          
C8       C      0.878000000000     0.374800000000     0.292800000000     0          
C9       C      0.864000000000     0.388300000000     0.313300000000     0          
C10      C      0.823000000000     0.439900000000     0.318300000000     0          
C11      C      0.795000000000     0.478100000000     0.303000000000     0          
C12      C      0.890000000000     0.353100000000     0.327500000000     0          
O1       O      0.933000000000     0.304000000000     0.322500000000     0          
O2       O      0.874000000000     0.364600000000     0.347600000000     0          
H1       H      0.834200000000     0.695700000000     0.263100000000     0          
H2       H      0.798900000000     0.597300000000     0.277000000000     0          
H3       H      0.859500000000     0.404100000000     0.264000000000     0          
H4       H      0.906000000000     0.340700000000     0.289500000000     0          
H5       H      0.814000000000     0.448800000000     0.331800000000     0          
H6       H      0.768000000000     0.512200000000     0.306300000000     0          
C2       C      0.031800000000     0.049300000000     0.007700000000     0          
C4       C      0.175300000000     0.029700000000     0.016400000000     0          
C5       C      0.242300000000     0.027400000000     0.015150000000     0          
C6       C      0.285400000000     0.059000000000     0.032500000000     0          
C7       C      0.337000000000     0.100400000000     0.027500000000     0          
C8       C      0.375200000000     0.128000000000     0.042800000000     0          
C9       C      0.361700000000     0.114000000000     0.063300000000     0          
C10      C      0.310100000000     0.073000000000     0.068300000000     0          
C11      C      0.271900000000     0.045000000000     0.053000000000     0          
C12      C      0.396900000000     0.140000000000     0.077500000000     0          
O1       O      0.446000000000     0.183000000000     0.072500000000     0          
O2       O      0.385400000000     0.124000000000     0.097600000000     0          
H1       H      0.054300000000     0.084200000000     0.013100000000     0          
H2       H      0.152700000000     0.048900000000     0.027000000000     0          
H3       H      0.345900000000     0.109500000000     0.014000000000     0          
H4       H      0.409300000000     0.156000000000     0.039500000000     0          
H5       H      0.301200000000     0.064000000000     0.081800000000     0          
H6       H      0.237800000000     0.018000000000     0.056300000000     0          
C2       C      0.700700000000     0.281800000000     0.757700000000     0          
C4       C      0.720300000000     0.425300000000     0.766400000000     0          
C5       C      0.722600000000     0.492300000000     0.765150000000     0          
C6       C      0.691000000000     0.535400000000     0.782500000000     0          
C7       C      0.649600000000     0.587000000000     0.777500000000     0          
C8       C      0.622000000000     0.625200000000     0.792800000000     0          
C9       C      0.636000000000     0.611700000000     0.813300000000     0          
C10      C      0.677000000000     0.560100000000     0.818300000000     0          
C11      C      0.705000000000     0.521900000000     0.803000000000     0          
C12      C      0.610000000000     0.646900000000     0.827500000000     0          
O1       O      0.567000000000     0.696000000000     0.822500000000     0          
O2       O      0.626000000000     0.635400000000     0.847600000000     0          
H1       H      0.665800000000     0.304300000000     0.763100000000     0          
H2       H      0.701100000000     0.402700000000     0.777000000000     0          
H3       H      0.640500000000     0.595900000000     0.764000000000     0          
H4       H      0.594000000000     0.659300000000     0.789500000000     0          
H5       H      0.686000000000     0.551200000000     0.831800000000     0          
H6       H      0.732000000000     0.487800000000     0.806300000000     0          


