data_VISZAB

_audit_creation_method RASPA-1.0
_audit_creation_date 2020-11-2
_audit_author_name 'Rocio Bueno-Perez'

_cell_length_a    20.6839
_cell_length_b    20.6839
_cell_length_c    66.7301
_cell_angle_alpha 90
_cell_angle_beta  90
_cell_angle_gamma 90
_cell_volume      28548.7

_symmetry_cell_setting          triclinic
_symmetry_space_group_name_Hall 'P 1'
_symmetry_space_group_name_H-M  'P 1'
_symmetry_Int_Tables_number     1

_symmetry_equiv_pos_as_xyz 'x,y,z'

loop_
_atom_site_label
_atom_site_type_symbol
_atom_site_fract_x
_atom_site_fract_y
_atom_site_fract_z
_atom_site_charge
C1       C      0.032900000000     0.448700000000     0.007700000000     0          
C2       C      0.177700000000     0.468600000000     0.016100000000     0          
C3       C      0.244900000000     0.471000000000     0.014800000000     0          
C4       C      0.288000000000     0.438000000000     0.031800000000     0          
C5       C      0.333100000000     0.387000000000     0.026500000000     0          
C6       C      0.372300000000     0.357000000000     0.041900000000     0          
C7       C      0.366400000000     0.378000000000     0.062600000000     0          
C8       C      0.321400000000     0.429000000000     0.067800000000     0          
C9       C      0.282200000000     0.459000000000     0.052400000000     0          
C10      C      0.401600000000     0.351000000000     0.076400000000     0          
O11      O      0.446600000000     0.305000000000     0.071300000000     0          
O12      O      0.393500000000     0.368000000000     0.096000000000     0          
H13      H      0.060460000000     0.405740000000     0.014150000000     0          
H14      H      0.153640000000     0.443020000000     0.029270000000     0          
H15      H      0.337610000000     0.370640000000     0.010250000000     0          
H16      H      0.407750000000     0.316950000000     0.037780000000     0          
H17      H      0.316800000000     0.445570000000     0.084030000000     0          
H18      H      0.246820000000     0.499120000000     0.056520000000     0          
O19      O      0.303000000000     0.334000000000     0.120000000000     0          
H20      H      0.356660000000     0.334000000000     0.120000000000     0          
C21      C      0.532900000000     0.948700000000     0.507700000000     0          
C22      C      0.677700000000     0.968600000000     0.516100000000     0          
C23      C      0.744900000000     0.971000000000     0.514800000000     0          
C24      C      0.788000000000     0.938000000000     0.531800000000     0          
C25      C      0.833100000000     0.887000000000     0.526500000000     0          
C26      C      0.872300000000     0.857000000000     0.541900000000     0          
C27      C      0.866400000000     0.878000000000     0.562600000000     0          
C28      C      0.821400000000     0.929000000000     0.567800000000     0          
C29      C      0.782200000000     0.959000000000     0.552400000000     0          
C30      C      0.901600000000     0.851000000000     0.576400000000     0          
O31      O      0.946600000000     0.805000000000     0.571300000000     0          
O32      O      0.893500000000     0.868000000000     0.596000000000     0          
H33      H      0.560460000000     0.905740000000     0.514150000000     0          
H34      H      0.653640000000     0.943020000000     0.529270000000     0          
H35      H      0.837610000000     0.870640000000     0.510250000000     0          
H36      H      0.907750000000     0.816950000000     0.537780000000     0          
H37      H      0.816800000000     0.945570000000     0.584030000000     0          
H38      H      0.746820000000     0.999120000000     0.556520000000     0          
O39      O      0.803000000000     0.834000000000     0.620000000000     0          
H40      H      0.856660000000     0.834000000000     0.620000000000     0          
C41      C      0.467100000000     0.551300000000     0.507700000000     0          
C42      C      0.322300000000     0.531400000000     0.516100000000     0          
C43      C      0.255100000000     0.529000000000     0.514800000000     0          
C44      C      0.212000000000     0.562000000000     0.531800000000     0          
C45      C      0.166900000000     0.613000000000     0.526500000000     0          
C46      C      0.127700000000     0.643000000000     0.541900000000     0          
C47      C      0.133600000000     0.622000000000     0.562600000000     0          
C48      C      0.178600000000     0.571000000000     0.567800000000     0          
C49      C      0.217800000000     0.541000000000     0.552400000000     0          
C50      C      0.098400000000     0.649000000000     0.576400000000     0          
O51      O      0.053400000000     0.695000000000     0.571300000000     0          
O52      O      0.106500000000     0.632000000000     0.596000000000     0          
H53      H      0.439540000000     0.594260000000     0.514150000000     0          
H54      H      0.346360000000     0.556980000000     0.529270000000     0          
H55      H      0.162390000000     0.629360000000     0.510250000000     0          
H56      H      0.092250000000     0.683050000000     0.537780000000     0          
H57      H      0.183200000000     0.554430000000     0.584030000000     0          
H58      H      0.253180000000     0.500880000000     0.556520000000     0          
O59      O      0.197000000000     0.666000000000     0.620000000000     0          
H60      H      0.143340000000     0.666000000000     0.620000000000     0          
C61      C      0.967100000000     0.051300000000     0.007700000000     0          
C62      C      0.822300000000     0.031400000000     0.016100000000     0          
C63      C      0.755100000000     0.029000000000     0.014800000000     0          
C64      C      0.712000000000     0.062000000000     0.031800000000     0          
C65      C      0.666900000000     0.113000000000     0.026500000000     0          
C66      C      0.627700000000     0.143000000000     0.041900000000     0          
C67      C      0.633600000000     0.122000000000     0.062600000000     0          
C68      C      0.678600000000     0.071000000000     0.067800000000     0          
C69      C      0.717800000000     0.041000000000     0.052400000000     0          
C70      C      0.598400000000     0.149000000000     0.076400000000     0          
O71      O      0.553400000000     0.195000000000     0.071300000000     0          
O72      O      0.606500000000     0.132000000000     0.096000000000     0          
H73      H      0.939540000000     0.094260000000     0.014150000000     0          
H74      H      0.846360000000     0.056980000000     0.029270000000     0          
H75      H      0.662390000000     0.129360000000     0.010250000000     0          
H76      H      0.592250000000     0.183050000000     0.037780000000     0          
H77      H      0.683200000000     0.054430000000     0.084030000000     0          
H78      H      0.753180000000     0.000880000000     0.056520000000     0          
O79      O      0.697000000000     0.166000000000     0.120000000000     0          
H80      H      0.643340000000     0.166000000000     0.120000000000     0          
C81      C      0.801300000000     0.782900000000     0.257700000000     0          
C82      C      0.781400000000     0.927700000000     0.266100000000     0          
C83      C      0.779000000000     0.994900000000     0.264800000000     0          
C84      C      0.812000000000     0.038000000000     0.281800000000     0          
C85      C      0.863000000000     0.083100000000     0.276500000000     0          
C86      C      0.893000000000     0.122300000000     0.291900000000     0          
C87      C      0.872000000000     0.116400000000     0.312600000000     0          
C88      C      0.821000000000     0.071400000000     0.317800000000     0          
C89      C      0.791000000000     0.032200000000     0.302400000000     0          
C90      C      0.899000000000     0.151600000000     0.326400000000     0          
O91      O      0.945000000000     0.196600000000     0.321300000000     0          
O92      O      0.882000000000     0.143500000000     0.346000000000     0          
H93      H      0.844260000000     0.810460000000     0.264150000000     0          
H94      H      0.806980000000     0.903640000000     0.279270000000     0          
H95      H      0.879360000000     0.087610000000     0.260250000000     0          
H96      H      0.933050000000     0.157750000000     0.287780000000     0          
H97      H      0.804430000000     0.066800000000     0.334030000000     0          
H98      H      0.750880000000     0.996820000000     0.306520000000     0          
O99      O      0.916000000000     0.053000000000     0.370000000000     0          
H100     H      0.916000000000     0.106660000000     0.370000000000     0          
C101     C      0.301300000000     0.282900000000     0.757700000000     0          
C102     C      0.281400000000     0.427700000000     0.766100000000     0          
C103     C      0.279000000000     0.494900000000     0.764800000000     0          
C104     C      0.312000000000     0.538000000000     0.781800000000     0          
C105     C      0.363000000000     0.583100000000     0.776500000000     0          
C106     C      0.393000000000     0.622300000000     0.791900000000     0          
C107     C      0.372000000000     0.616400000000     0.812600000000     0          
C108     C      0.321000000000     0.571400000000     0.817800000000     0          
C109     C      0.291000000000     0.532200000000     0.802400000000     0          
C110     C      0.399000000000     0.651600000000     0.826400000000     0          
O111     O      0.445000000000     0.696600000000     0.821300000000     0          
O112     O      0.382000000000     0.643500000000     0.846000000000     0          
H113     H      0.344260000000     0.310460000000     0.764150000000     0          
H114     H      0.306980000000     0.403640000000     0.779270000000     0          
H115     H      0.379360000000     0.587610000000     0.760250000000     0          
H116     H      0.433050000000     0.657750000000     0.787780000000     0          
H117     H      0.304430000000     0.566800000000     0.834030000000     0          
H118     H      0.250880000000     0.496820000000     0.806520000000     0          
O119     O      0.416000000000     0.553000000000     0.870000000000     0          
H120     H      0.416000000000     0.606660000000     0.870000000000     0          
C121     C      0.698700000000     0.217100000000     0.757700000000     0          
C122     C      0.718600000000     0.072300000000     0.766100000000     0          
C123     C      0.721000000000     0.005100000000     0.764800000000     0          
C124     C      0.688000000000     0.962000000000     0.781800000000     0          
C125     C      0.637000000000     0.916900000000     0.776500000000     0          
C126     C      0.607000000000     0.877700000000     0.791900000000     0          
C127     C      0.628000000000     0.883600000000     0.812600000000     0          
C128     C      0.679000000000     0.928600000000     0.817800000000     0          
C129     C      0.709000000000     0.967800000000     0.802400000000     0          
C130     C      0.601000000000     0.848400000000     0.826400000000     0          
O131     O      0.555000000000     0.803400000000     0.821300000000     0          
O132     O      0.618000000000     0.856500000000     0.846000000000     0          
H133     H      0.655740000000     0.189540000000     0.764150000000     0          
H134     H      0.693020000000     0.096360000000     0.779270000000     0          
H135     H      0.620640000000     0.912390000000     0.760250000000     0          
H136     H      0.566950000000     0.842250000000     0.787780000000     0          
H137     H      0.695570000000     0.933200000000     0.834030000000     0          
H138     H      0.749120000000     0.003180000000     0.806520000000     0          
O139     O      0.584000000000     0.947000000000     0.870000000000     0          
H140     H      0.584000000000     0.893340000000     0.870000000000     0          
C141     C      0.198700000000     0.717100000000     0.257700000000     0          
C142     C      0.218600000000     0.572300000000     0.266100000000     0          
C143     C      0.221000000000     0.505100000000     0.264800000000     0          
C144     C      0.188000000000     0.462000000000     0.281800000000     0          
C145     C      0.137000000000     0.416900000000     0.276500000000     0          
C146     C      0.107000000000     0.377700000000     0.291900000000     0          
C147     C      0.128000000000     0.383600000000     0.312600000000     0          
C148     C      0.179000000000     0.428600000000     0.317800000000     0          
C149     C      0.209000000000     0.467800000000     0.302400000000     0          
C150     C      0.101000000000     0.348400000000     0.326400000000     0          
O151     O      0.055000000000     0.303400000000     0.321300000000     0          
O152     O      0.118000000000     0.356500000000     0.346000000000     0          
H153     H      0.155740000000     0.689540000000     0.264150000000     0          
H154     H      0.193020000000     0.596360000000     0.279270000000     0          
H155     H      0.120640000000     0.412390000000     0.260250000000     0          
H156     H      0.066950000000     0.342250000000     0.287780000000     0          
H157     H      0.195570000000     0.433200000000     0.334030000000     0          
H158     H      0.249120000000     0.503180000000     0.306520000000     0          
O159     O      0.084000000000     0.447000000000     0.370000000000     0          
H160     H      0.084000000000     0.393340000000     0.370000000000     0          
C161     C      0.467100000000     0.448700000000     0.492300000000     0          
C162     C      0.322300000000     0.468600000000     0.483900000000     0          
C163     C      0.255100000000     0.471000000000     0.485200000000     0          
C164     C      0.212000000000     0.438000000000     0.468200000000     0          
C165     C      0.166900000000     0.387000000000     0.473500000000     0          
C166     C      0.127700000000     0.357000000000     0.458100000000     0          
C167     C      0.133600000000     0.378000000000     0.437400000000     0          
C168     C      0.178600000000     0.429000000000     0.432200000000     0          
C169     C      0.217800000000     0.459000000000     0.447600000000     0          
C170     C      0.098400000000     0.351000000000     0.423600000000     0          
O171     O      0.053400000000     0.305000000000     0.428700000000     0          
O172     O      0.106500000000     0.368000000000     0.404000000000     0          
H173     H      0.439540000000     0.405740000000     0.485850000000     0          
H174     H      0.346360000000     0.443020000000     0.470730000000     0          
H175     H      0.162390000000     0.370640000000     0.489750000000     0          
H176     H      0.092250000000     0.316950000000     0.462220000000     0          
H177     H      0.183200000000     0.445570000000     0.415970000000     0          
H178     H      0.253180000000     0.499120000000     0.443480000000     0          
O179     O      0.197000000000     0.334000000000     0.380000000000     0          
H180     H      0.143340000000     0.334000000000     0.380000000000     0          
C181     C      0.967100000000     0.948700000000     0.992300000000     0          
C182     C      0.822300000000     0.968600000000     0.983900000000     0          
C183     C      0.755100000000     0.971000000000     0.985200000000     0          
C184     C      0.712000000000     0.938000000000     0.968200000000     0          
C185     C      0.666900000000     0.887000000000     0.973500000000     0          
C186     C      0.627700000000     0.857000000000     0.958100000000     0          
C187     C      0.633600000000     0.878000000000     0.937400000000     0          
C188     C      0.678600000000     0.929000000000     0.932200000000     0          
C189     C      0.717800000000     0.959000000000     0.947600000000     0          
C190     C      0.598400000000     0.851000000000     0.923600000000     0          
O191     O      0.553400000000     0.805000000000     0.928700000000     0          
O192     O      0.606500000000     0.868000000000     0.904000000000     0          
H193     H      0.939540000000     0.905740000000     0.985850000000     0          
H194     H      0.846360000000     0.943020000000     0.970730000000     0          
H195     H      0.662390000000     0.870640000000     0.989750000000     0          
H196     H      0.592250000000     0.816950000000     0.962220000000     0          
H197     H      0.683200000000     0.945570000000     0.915970000000     0          
H198     H      0.753180000000     0.999120000000     0.943480000000     0          
O199     O      0.697000000000     0.834000000000     0.880000000000     0          
H200     H      0.643340000000     0.834000000000     0.880000000000     0          
C201     C      0.032900000000     0.551300000000     0.992300000000     0          
C202     C      0.177700000000     0.531400000000     0.983900000000     0          
C203     C      0.244900000000     0.529000000000     0.985200000000     0          
C204     C      0.288000000000     0.562000000000     0.968200000000     0          
C205     C      0.333100000000     0.613000000000     0.973500000000     0          
C206     C      0.372300000000     0.643000000000     0.958100000000     0          
C207     C      0.366400000000     0.622000000000     0.937400000000     0          
C208     C      0.321400000000     0.571000000000     0.932200000000     0          
C209     C      0.282200000000     0.541000000000     0.947600000000     0          
C210     C      0.401600000000     0.649000000000     0.923600000000     0          
O211     O      0.446600000000     0.695000000000     0.928700000000     0          
O212     O      0.393500000000     0.632000000000     0.904000000000     0          
H213     H      0.060460000000     0.594260000000     0.985850000000     0          
H214     H      0.153640000000     0.556980000000     0.970730000000     0          
H215     H      0.337610000000     0.629360000000     0.989750000000     0          
H216     H      0.407750000000     0.683050000000     0.962220000000     0          
H217     H      0.316800000000     0.554430000000     0.915970000000     0          
H218     H      0.246820000000     0.500880000000     0.943480000000     0          
O219     O      0.303000000000     0.666000000000     0.880000000000     0          
H220     H      0.356660000000     0.666000000000     0.880000000000     0          
C221     C      0.532900000000     0.051300000000     0.492300000000     0          
C222     C      0.677700000000     0.031400000000     0.483900000000     0          
C223     C      0.744900000000     0.029000000000     0.485200000000     0          
C224     C      0.788000000000     0.062000000000     0.468200000000     0          
C225     C      0.833100000000     0.113000000000     0.473500000000     0          
C226     C      0.872300000000     0.143000000000     0.458100000000     0          
C227     C      0.866400000000     0.122000000000     0.437400000000     0          
C228     C      0.821400000000     0.071000000000     0.432200000000     0          
C229     C      0.782200000000     0.041000000000     0.447600000000     0          
C230     C      0.901600000000     0.149000000000     0.423600000000     0          
O231     O      0.946600000000     0.195000000000     0.428700000000     0          
O232     O      0.893500000000     0.132000000000     0.404000000000     0          
H233     H      0.560460000000     0.094260000000     0.485850000000     0          
H234     H      0.653640000000     0.056980000000     0.470730000000     0          
H235     H      0.837610000000     0.129360000000     0.489750000000     0          
H236     H      0.907750000000     0.183050000000     0.462220000000     0          
H237     H      0.816800000000     0.054430000000     0.415970000000     0          
H238     H      0.746820000000     0.000880000000     0.443480000000     0          
O239     O      0.803000000000     0.166000000000     0.380000000000     0          
H240     H      0.856660000000     0.166000000000     0.380000000000     0          
C241     C      0.698700000000     0.782900000000     0.242300000000     0          
C242     C      0.718600000000     0.927700000000     0.233900000000     0          
C243     C      0.721000000000     0.994900000000     0.235200000000     0          
C244     C      0.688000000000     0.038000000000     0.218200000000     0          
C245     C      0.637000000000     0.083100000000     0.223500000000     0          
C246     C      0.607000000000     0.122300000000     0.208100000000     0          
C247     C      0.628000000000     0.116400000000     0.187400000000     0          
C248     C      0.679000000000     0.071400000000     0.182200000000     0          
C249     C      0.709000000000     0.032200000000     0.197600000000     0          
C250     C      0.601000000000     0.151600000000     0.173600000000     0          
O251     O      0.555000000000     0.196600000000     0.178700000000     0          
O252     O      0.618000000000     0.143500000000     0.154000000000     0          
H253     H      0.655740000000     0.810460000000     0.235850000000     0          
H254     H      0.693020000000     0.903640000000     0.220730000000     0          
H255     H      0.620640000000     0.087610000000     0.239750000000     0          
H256     H      0.566950000000     0.157750000000     0.212220000000     0          
H257     H      0.695570000000     0.066800000000     0.165970000000     0          
H258     H      0.749120000000     0.996820000000     0.193480000000     0          
O259     O      0.584000000000     0.053000000000     0.130000000000     0          
H260     H      0.584000000000     0.106660000000     0.130000000000     0          
C261     C      0.198700000000     0.282900000000     0.742300000000     0          
C262     C      0.218600000000     0.427700000000     0.733900000000     0          
C263     C      0.221000000000     0.494900000000     0.735200000000     0          
C264     C      0.188000000000     0.538000000000     0.718200000000     0          
C265     C      0.137000000000     0.583100000000     0.723500000000     0          
C266     C      0.107000000000     0.622300000000     0.708100000000     0          
C267     C      0.128000000000     0.616400000000     0.687400000000     0          
C268     C      0.179000000000     0.571400000000     0.682200000000     0          
C269     C      0.209000000000     0.532200000000     0.697600000000     0          
C270     C      0.101000000000     0.651600000000     0.673600000000     0          
O271     O      0.055000000000     0.696600000000     0.678700000000     0          
O272     O      0.118000000000     0.643500000000     0.654000000000     0          
H273     H      0.155740000000     0.310460000000     0.735850000000     0          
H274     H      0.193020000000     0.403640000000     0.720730000000     0          
H275     H      0.120640000000     0.587610000000     0.739750000000     0          
H276     H      0.066950000000     0.657750000000     0.712220000000     0          
H277     H      0.195570000000     0.566800000000     0.665970000000     0          
H278     H      0.249120000000     0.496820000000     0.693480000000     0          
O279     O      0.084000000000     0.553000000000     0.630000000000     0          
H280     H      0.084000000000     0.606660000000     0.630000000000     0          
C281     C      0.801300000000     0.217100000000     0.742300000000     0          
C282     C      0.781400000000     0.072300000000     0.733900000000     0          
C283     C      0.779000000000     0.005100000000     0.735200000000     0          
C284     C      0.812000000000     0.962000000000     0.718200000000     0          
C285     C      0.863000000000     0.916900000000     0.723500000000     0          
C286     C      0.893000000000     0.877700000000     0.708100000000     0          
C287     C      0.872000000000     0.883600000000     0.687400000000     0          
C288     C      0.821000000000     0.928600000000     0.682200000000     0          
C289     C      0.791000000000     0.967800000000     0.697600000000     0          
C290     C      0.899000000000     0.848400000000     0.673600000000     0          
O291     O      0.945000000000     0.803400000000     0.678700000000     0          
O292     O      0.882000000000     0.856500000000     0.654000000000     0          
H293     H      0.844260000000     0.189540000000     0.735850000000     0          
H294     H      0.806980000000     0.096360000000     0.720730000000     0          
H295     H      0.879360000000     0.912390000000     0.739750000000     0          
H296     H      0.933050000000     0.842250000000     0.712220000000     0          
H297     H      0.804430000000     0.933200000000     0.665970000000     0          
H298     H      0.750880000000     0.003180000000     0.693480000000     0          
O299     O      0.916000000000     0.947000000000     0.630000000000     0          
H300     H      0.916000000000     0.893340000000     0.630000000000     0          
C301     C      0.301300000000     0.717100000000     0.242300000000     0          
C302     C      0.281400000000     0.572300000000     0.233900000000     0          
C303     C      0.279000000000     0.505100000000     0.235200000000     0          
C304     C      0.312000000000     0.462000000000     0.218200000000     0          
C305     C      0.363000000000     0.416900000000     0.223500000000     0          
C306     C      0.393000000000     0.377700000000     0.208100000000     0          
C307     C      0.372000000000     0.383600000000     0.187400000000     0          
C308     C      0.321000000000     0.428600000000     0.182200000000     0          
C309     C      0.291000000000     0.467800000000     0.197600000000     0          
C310     C      0.399000000000     0.348400000000     0.173600000000     0          
O311     O      0.445000000000     0.303400000000     0.178700000000     0          
O312     O      0.382000000000     0.356500000000     0.154000000000     0          
H313     H      0.344260000000     0.689540000000     0.235850000000     0          
H314     H      0.306980000000     0.596360000000     0.220730000000     0          
H315     H      0.379360000000     0.412390000000     0.239750000000     0          
H316     H      0.433050000000     0.342250000000     0.212220000000     0          
H317     H      0.304430000000     0.433200000000     0.165970000000     0          
H318     H      0.250880000000     0.503180000000     0.193480000000     0          
O319     O      0.416000000000     0.447000000000     0.130000000000     0          
H320     H      0.416000000000     0.393340000000     0.130000000000     0          
C321     C      0.967100000000     0.551300000000     0.992300000000     0          
C322     C      0.822300000000     0.531400000000     0.983900000000     0          
C323     C      0.755100000000     0.529000000000     0.985200000000     0          
C324     C      0.712000000000     0.562000000000     0.968200000000     0          
C325     C      0.666900000000     0.613000000000     0.973500000000     0          
C326     C      0.627700000000     0.643000000000     0.958100000000     0          
C327     C      0.633600000000     0.622000000000     0.937400000000     0          
C328     C      0.678600000000     0.571000000000     0.932200000000     0          
C329     C      0.717800000000     0.541000000000     0.947600000000     0          
C330     C      0.598400000000     0.649000000000     0.923600000000     0          
O331     O      0.553400000000     0.695000000000     0.928700000000     0          
O332     O      0.606500000000     0.632000000000     0.904000000000     0          
H333     H      0.939540000000     0.594260000000     0.985850000000     0          
H334     H      0.846360000000     0.556980000000     0.970730000000     0          
H335     H      0.662390000000     0.629360000000     0.989750000000     0          
H336     H      0.592250000000     0.683050000000     0.962220000000     0          
H337     H      0.683200000000     0.554430000000     0.915970000000     0          
H338     H      0.753180000000     0.500880000000     0.943480000000     0          
O339     O      0.697000000000     0.666000000000     0.880000000000     0          
H340     H      0.643340000000     0.666000000000     0.880000000000     0          
C341     C      0.467100000000     0.051300000000     0.492300000000     0          
C342     C      0.322300000000     0.031400000000     0.483900000000     0          
C343     C      0.255100000000     0.029000000000     0.485200000000     0          
C344     C      0.212000000000     0.062000000000     0.468200000000     0          
C345     C      0.166900000000     0.113000000000     0.473500000000     0          
C346     C      0.127700000000     0.143000000000     0.458100000000     0          
C347     C      0.133600000000     0.122000000000     0.437400000000     0          
C348     C      0.178600000000     0.071000000000     0.432200000000     0          
C349     C      0.217800000000     0.041000000000     0.447600000000     0          
C350     C      0.098400000000     0.149000000000     0.423600000000     0          
O351     O      0.053400000000     0.195000000000     0.428700000000     0          
O352     O      0.106500000000     0.132000000000     0.404000000000     0          
H353     H      0.439540000000     0.094260000000     0.485850000000     0          
H354     H      0.346360000000     0.056980000000     0.470730000000     0          
H355     H      0.162390000000     0.129360000000     0.489750000000     0          
H356     H      0.092250000000     0.183050000000     0.462220000000     0          
H357     H      0.183200000000     0.054430000000     0.415970000000     0          
H358     H      0.253180000000     0.000880000000     0.443480000000     0          
O359     O      0.197000000000     0.166000000000     0.380000000000     0          
H360     H      0.143340000000     0.166000000000     0.380000000000     0          
C361     C      0.532900000000     0.448700000000     0.492300000000     0          
C362     C      0.677700000000     0.468600000000     0.483900000000     0          
C363     C      0.744900000000     0.471000000000     0.485200000000     0          
C364     C      0.788000000000     0.438000000000     0.468200000000     0          
C365     C      0.833100000000     0.387000000000     0.473500000000     0          
C366     C      0.872300000000     0.357000000000     0.458100000000     0          
C367     C      0.866400000000     0.378000000000     0.437400000000     0          
C368     C      0.821400000000     0.429000000000     0.432200000000     0          
C369     C      0.782200000000     0.459000000000     0.447600000000     0          
C370     C      0.901600000000     0.351000000000     0.423600000000     0          
O371     O      0.946600000000     0.305000000000     0.428700000000     0          
O372     O      0.893500000000     0.368000000000     0.404000000000     0          
H373     H      0.560460000000     0.405740000000     0.485850000000     0          
H374     H      0.653640000000     0.443020000000     0.470730000000     0          
H375     H      0.837610000000     0.370640000000     0.489750000000     0          
H376     H      0.907750000000     0.316950000000     0.462220000000     0          
H377     H      0.816800000000     0.445570000000     0.415970000000     0          
H378     H      0.746820000000     0.499120000000     0.443480000000     0          
O379     O      0.803000000000     0.334000000000     0.380000000000     0          
H380     H      0.856660000000     0.334000000000     0.380000000000     0          
C381     C      0.032900000000     0.948700000000     0.992300000000     0          
C382     C      0.177700000000     0.968600000000     0.983900000000     0          
C383     C      0.244900000000     0.971000000000     0.985200000000     0          
C384     C      0.288000000000     0.938000000000     0.968200000000     0          
C385     C      0.333100000000     0.887000000000     0.973500000000     0          
C386     C      0.372300000000     0.857000000000     0.958100000000     0          
C387     C      0.366400000000     0.878000000000     0.937400000000     0          
C388     C      0.321400000000     0.929000000000     0.932200000000     0          
C389     C      0.282200000000     0.959000000000     0.947600000000     0          
C390     C      0.401600000000     0.851000000000     0.923600000000     0          
O391     O      0.446600000000     0.805000000000     0.928700000000     0          
O392     O      0.393500000000     0.868000000000     0.904000000000     0          
H393     H      0.060460000000     0.905740000000     0.985850000000     0          
H394     H      0.153640000000     0.943020000000     0.970730000000     0          
H395     H      0.337610000000     0.870640000000     0.989750000000     0          
H396     H      0.407750000000     0.816950000000     0.962220000000     0          
H397     H      0.316800000000     0.945570000000     0.915970000000     0          
H398     H      0.246820000000     0.999120000000     0.943480000000     0          
O399     O      0.303000000000     0.834000000000     0.880000000000     0          
H400     H      0.356660000000     0.834000000000     0.880000000000     0          
C401     C      0.198700000000     0.217100000000     0.742300000000     0          
C402     C      0.218600000000     0.072300000000     0.733900000000     0          
C403     C      0.221000000000     0.005100000000     0.735200000000     0          
C404     C      0.188000000000     0.962000000000     0.718200000000     0          
C405     C      0.137000000000     0.916900000000     0.723500000000     0          
C406     C      0.107000000000     0.877700000000     0.708100000000     0          
C407     C      0.128000000000     0.883600000000     0.687400000000     0          
C408     C      0.179000000000     0.928600000000     0.682200000000     0          
C409     C      0.209000000000     0.967800000000     0.697600000000     0          
C410     C      0.101000000000     0.848400000000     0.673600000000     0          
O411     O      0.055000000000     0.803400000000     0.678700000000     0          
O412     O      0.118000000000     0.856500000000     0.654000000000     0          
H413     H      0.155740000000     0.189540000000     0.735850000000     0          
H414     H      0.193020000000     0.096360000000     0.720730000000     0          
H415     H      0.120640000000     0.912390000000     0.739750000000     0          
H416     H      0.066950000000     0.842250000000     0.712220000000     0          
H417     H      0.195570000000     0.933200000000     0.665970000000     0          
H418     H      0.249120000000     0.003180000000     0.693480000000     0          
O419     O      0.084000000000     0.947000000000     0.630000000000     0          
H420     H      0.084000000000     0.893340000000     0.630000000000     0          
C421     C      0.698700000000     0.717100000000     0.242300000000     0          
C422     C      0.718600000000     0.572300000000     0.233900000000     0          
C423     C      0.721000000000     0.505100000000     0.235200000000     0          
C424     C      0.688000000000     0.462000000000     0.218200000000     0          
C425     C      0.637000000000     0.416900000000     0.223500000000     0          
C426     C      0.607000000000     0.377700000000     0.208100000000     0          
C427     C      0.628000000000     0.383600000000     0.187400000000     0          
C428     C      0.679000000000     0.428600000000     0.182200000000     0          
C429     C      0.709000000000     0.467800000000     0.197600000000     0          
C430     C      0.601000000000     0.348400000000     0.173600000000     0          
O431     O      0.555000000000     0.303400000000     0.178700000000     0          
O432     O      0.618000000000     0.356500000000     0.154000000000     0          
H433     H      0.655740000000     0.689540000000     0.235850000000     0          
H434     H      0.693020000000     0.596360000000     0.220730000000     0          
H435     H      0.620640000000     0.412390000000     0.239750000000     0          
H436     H      0.566950000000     0.342250000000     0.212220000000     0          
H437     H      0.695570000000     0.433200000000     0.165970000000     0          
H438     H      0.749120000000     0.503180000000     0.193480000000     0          
O439     O      0.584000000000     0.447000000000     0.130000000000     0          
H440     H      0.584000000000     0.393340000000     0.130000000000     0          
C441     C      0.301300000000     0.782900000000     0.242300000000     0          
C442     C      0.281400000000     0.927700000000     0.233900000000     0          
C443     C      0.279000000000     0.994900000000     0.235200000000     0          
C444     C      0.312000000000     0.038000000000     0.218200000000     0          
C445     C      0.363000000000     0.083100000000     0.223500000000     0          
C446     C      0.393000000000     0.122300000000     0.208100000000     0          
C447     C      0.372000000000     0.116400000000     0.187400000000     0          
C448     C      0.321000000000     0.071400000000     0.182200000000     0          
C449     C      0.291000000000     0.032200000000     0.197600000000     0          
C450     C      0.399000000000     0.151600000000     0.173600000000     0          
O451     O      0.445000000000     0.196600000000     0.178700000000     0          
O452     O      0.382000000000     0.143500000000     0.154000000000     0          
H453     H      0.344260000000     0.810460000000     0.235850000000     0          
H454     H      0.306980000000     0.903640000000     0.220730000000     0          
H455     H      0.379360000000     0.087610000000     0.239750000000     0          
H456     H      0.433050000000     0.157750000000     0.212220000000     0          
H457     H      0.304430000000     0.066800000000     0.165970000000     0          
H458     H      0.250880000000     0.996820000000     0.193480000000     0          
O459     O      0.416000000000     0.053000000000     0.130000000000     0          
H460     H      0.416000000000     0.106660000000     0.130000000000     0          
C461     C      0.801300000000     0.282900000000     0.742300000000     0          
C462     C      0.781400000000     0.427700000000     0.733900000000     0          
C463     C      0.779000000000     0.494900000000     0.735200000000     0          
C464     C      0.812000000000     0.538000000000     0.718200000000     0          
C465     C      0.863000000000     0.583100000000     0.723500000000     0          
C466     C      0.893000000000     0.622300000000     0.708100000000     0          
C467     C      0.872000000000     0.616400000000     0.687400000000     0          
C468     C      0.821000000000     0.571400000000     0.682200000000     0          
C469     C      0.791000000000     0.532200000000     0.697600000000     0          
C470     C      0.899000000000     0.651600000000     0.673600000000     0          
O471     O      0.945000000000     0.696600000000     0.678700000000     0          
O472     O      0.882000000000     0.643500000000     0.654000000000     0          
H473     H      0.844260000000     0.310460000000     0.735850000000     0          
H474     H      0.806980000000     0.403640000000     0.720730000000     0          
H475     H      0.879360000000     0.587610000000     0.739750000000     0          
H476     H      0.933050000000     0.657750000000     0.712220000000     0          
H477     H      0.804430000000     0.566800000000     0.665970000000     0          
H478     H      0.750880000000     0.496820000000     0.693480000000     0          
O479     O      0.916000000000     0.553000000000     0.630000000000     0          
H480     H      0.916000000000     0.606660000000     0.630000000000     0          
C481     C      0.532900000000     0.551300000000     0.507700000000     0          
C482     C      0.677700000000     0.531400000000     0.516100000000     0          
C483     C      0.744900000000     0.529000000000     0.514800000000     0          
C484     C      0.788000000000     0.562000000000     0.531800000000     0          
C485     C      0.833100000000     0.613000000000     0.526500000000     0          
C486     C      0.872300000000     0.643000000000     0.541900000000     0          
C487     C      0.866400000000     0.622000000000     0.562600000000     0          
C488     C      0.821400000000     0.571000000000     0.567800000000     0          
C489     C      0.782200000000     0.541000000000     0.552400000000     0          
C490     C      0.901600000000     0.649000000000     0.576400000000     0          
O491     O      0.946600000000     0.695000000000     0.571300000000     0          
O492     O      0.893500000000     0.632000000000     0.596000000000     0          
H493     H      0.560460000000     0.594260000000     0.514150000000     0          
H494     H      0.653640000000     0.556980000000     0.529270000000     0          
H495     H      0.837610000000     0.629360000000     0.510250000000     0          
H496     H      0.907750000000     0.683050000000     0.537780000000     0          
H497     H      0.816800000000     0.554430000000     0.584030000000     0          
H498     H      0.746820000000     0.500880000000     0.556520000000     0          
O499     O      0.803000000000     0.666000000000     0.620000000000     0          
H500     H      0.856660000000     0.666000000000     0.620000000000     0          
C501     C      0.032900000000     0.051300000000     0.007700000000     0          
C502     C      0.177700000000     0.031400000000     0.016100000000     0          
C503     C      0.244900000000     0.029000000000     0.014800000000     0          
C504     C      0.288000000000     0.062000000000     0.031800000000     0          
C505     C      0.333100000000     0.113000000000     0.026500000000     0          
C506     C      0.372300000000     0.143000000000     0.041900000000     0          
C507     C      0.366400000000     0.122000000000     0.062600000000     0          
C508     C      0.321400000000     0.071000000000     0.067800000000     0          
C509     C      0.282200000000     0.041000000000     0.052400000000     0          
C510     C      0.401600000000     0.149000000000     0.076400000000     0          
O511     O      0.446600000000     0.195000000000     0.071300000000     0          
O512     O      0.393500000000     0.132000000000     0.096000000000     0          
H513     H      0.060460000000     0.094260000000     0.014150000000     0          
H514     H      0.153640000000     0.056980000000     0.029270000000     0          
H515     H      0.337610000000     0.129360000000     0.010250000000     0          
H516     H      0.407750000000     0.183050000000     0.037780000000     0          
H517     H      0.316800000000     0.054430000000     0.084030000000     0          
H518     H      0.246820000000     0.000880000000     0.056520000000     0          
O519     O      0.303000000000     0.166000000000     0.120000000000     0          
H520     H      0.356660000000     0.166000000000     0.120000000000     0          
C521     C      0.967100000000     0.448700000000     0.007700000000     0          
C522     C      0.822300000000     0.468600000000     0.016100000000     0          
C523     C      0.755100000000     0.471000000000     0.014800000000     0          
C524     C      0.712000000000     0.438000000000     0.031800000000     0          
C525     C      0.666900000000     0.387000000000     0.026500000000     0          
C526     C      0.627700000000     0.357000000000     0.041900000000     0          
C527     C      0.633600000000     0.378000000000     0.062600000000     0          
C528     C      0.678600000000     0.429000000000     0.067800000000     0          
C529     C      0.717800000000     0.459000000000     0.052400000000     0          
C530     C      0.598400000000     0.351000000000     0.076400000000     0          
O531     O      0.553400000000     0.305000000000     0.071300000000     0          
O532     O      0.606500000000     0.368000000000     0.096000000000     0          
H533     H      0.939540000000     0.405740000000     0.014150000000     0          
H534     H      0.846360000000     0.443020000000     0.029270000000     0          
H535     H      0.662390000000     0.370640000000     0.010250000000     0          
H536     H      0.592250000000     0.316950000000     0.037780000000     0          
H537     H      0.683200000000     0.445570000000     0.084030000000     0          
H538     H      0.753180000000     0.499120000000     0.056520000000     0          
O539     O      0.697000000000     0.334000000000     0.120000000000     0          
H540     H      0.643340000000     0.334000000000     0.120000000000     0          
C541     C      0.467100000000     0.948700000000     0.507700000000     0          
C542     C      0.322300000000     0.968600000000     0.516100000000     0          
C543     C      0.255100000000     0.971000000000     0.514800000000     0          
C544     C      0.212000000000     0.938000000000     0.531800000000     0          
C545     C      0.166900000000     0.887000000000     0.526500000000     0          
C546     C      0.127700000000     0.857000000000     0.541900000000     0          
C547     C      0.133600000000     0.878000000000     0.562600000000     0          
C548     C      0.178600000000     0.929000000000     0.567800000000     0          
C549     C      0.217800000000     0.959000000000     0.552400000000     0          
C550     C      0.098400000000     0.851000000000     0.576400000000     0          
O551     O      0.053400000000     0.805000000000     0.571300000000     0          
O552     O      0.106500000000     0.868000000000     0.596000000000     0          
H553     H      0.439540000000     0.905740000000     0.514150000000     0          
H554     H      0.346360000000     0.943020000000     0.529270000000     0          
H555     H      0.162390000000     0.870640000000     0.510250000000     0          
H556     H      0.092250000000     0.816950000000     0.537780000000     0          
H557     H      0.183200000000     0.945570000000     0.584030000000     0          
H558     H      0.253180000000     0.999120000000     0.556520000000     0          
O559     O      0.197000000000     0.834000000000     0.620000000000     0          
H560     H      0.143340000000     0.834000000000     0.620000000000     0          
C561     C      0.301300000000     0.217100000000     0.757700000000     0          
C562     C      0.281400000000     0.072300000000     0.766100000000     0          
C563     C      0.279000000000     0.005100000000     0.764800000000     0          
C564     C      0.312000000000     0.962000000000     0.781800000000     0          
C565     C      0.363000000000     0.916900000000     0.776500000000     0          
C566     C      0.393000000000     0.877700000000     0.791900000000     0          
C567     C      0.372000000000     0.883600000000     0.812600000000     0          
C568     C      0.321000000000     0.928600000000     0.817800000000     0          
C569     C      0.291000000000     0.967800000000     0.802400000000     0          
C570     C      0.399000000000     0.848400000000     0.826400000000     0          
O571     O      0.445000000000     0.803400000000     0.821300000000     0          
O572     O      0.382000000000     0.856500000000     0.846000000000     0          
H573     H      0.344260000000     0.189540000000     0.764150000000     0          
H574     H      0.306980000000     0.096360000000     0.779270000000     0          
H575     H      0.379360000000     0.912390000000     0.760250000000     0          
H576     H      0.433050000000     0.842250000000     0.787780000000     0          
H577     H      0.304430000000     0.933200000000     0.834030000000     0          
H578     H      0.250880000000     0.003180000000     0.806520000000     0          
O579     O      0.416000000000     0.947000000000     0.870000000000     0          
H580     H      0.416000000000     0.893340000000     0.870000000000     0          
C581     C      0.801300000000     0.717100000000     0.257700000000     0          
C582     C      0.781400000000     0.572300000000     0.266100000000     0          
C583     C      0.779000000000     0.505100000000     0.264800000000     0          
C584     C      0.812000000000     0.462000000000     0.281800000000     0          
C585     C      0.863000000000     0.416900000000     0.276500000000     0          
C586     C      0.893000000000     0.377700000000     0.291900000000     0          
C587     C      0.872000000000     0.383600000000     0.312600000000     0          
C588     C      0.821000000000     0.428600000000     0.317800000000     0          
C589     C      0.791000000000     0.467800000000     0.302400000000     0          
C590     C      0.899000000000     0.348400000000     0.326400000000     0          
O591     O      0.945000000000     0.303400000000     0.321300000000     0          
O592     O      0.882000000000     0.356500000000     0.346000000000     0          
H593     H      0.844260000000     0.689540000000     0.264150000000     0          
H594     H      0.806980000000     0.596360000000     0.279270000000     0          
H595     H      0.879360000000     0.412390000000     0.260250000000     0          
H596     H      0.933050000000     0.342250000000     0.287780000000     0          
H597     H      0.804430000000     0.433200000000     0.334030000000     0          
H598     H      0.750880000000     0.503180000000     0.306520000000     0          
O599     O      0.916000000000     0.447000000000     0.370000000000     0          
H600     H      0.916000000000     0.393340000000     0.370000000000     0          
C601     C      0.198700000000     0.782900000000     0.257700000000     0          
C602     C      0.218600000000     0.927700000000     0.266100000000     0          
C603     C      0.221000000000     0.994900000000     0.264800000000     0          
C604     C      0.188000000000     0.038000000000     0.281800000000     0          
C605     C      0.137000000000     0.083100000000     0.276500000000     0          
C606     C      0.107000000000     0.122300000000     0.291900000000     0          
C607     C      0.128000000000     0.116400000000     0.312600000000     0          
C608     C      0.179000000000     0.071400000000     0.317800000000     0          
C609     C      0.209000000000     0.032200000000     0.302400000000     0          
C610     C      0.101000000000     0.151600000000     0.326400000000     0          
O611     O      0.055000000000     0.196600000000     0.321300000000     0          
O612     O      0.118000000000     0.143500000000     0.346000000000     0          
H613     H      0.155740000000     0.810460000000     0.264150000000     0          
H614     H      0.193020000000     0.903640000000     0.279270000000     0          
H615     H      0.120640000000     0.087610000000     0.260250000000     0          
H616     H      0.066950000000     0.157750000000     0.287780000000     0          
H617     H      0.195570000000     0.066800000000     0.334030000000     0          
H618     H      0.249120000000     0.996820000000     0.306520000000     0          
O619     O      0.084000000000     0.053000000000     0.370000000000     0          
H620     H      0.084000000000     0.106660000000     0.370000000000     0          
C621     C      0.698700000000     0.282900000000     0.757700000000     0          
C622     C      0.718600000000     0.427700000000     0.766100000000     0          
C623     C      0.721000000000     0.494900000000     0.764800000000     0          
C624     C      0.688000000000     0.538000000000     0.781800000000     0          
C625     C      0.637000000000     0.583100000000     0.776500000000     0          
C626     C      0.607000000000     0.622300000000     0.791900000000     0          
C627     C      0.628000000000     0.616400000000     0.812600000000     0          
C628     C      0.679000000000     0.571400000000     0.817800000000     0          
C629     C      0.709000000000     0.532200000000     0.802400000000     0          
C630     C      0.601000000000     0.651600000000     0.826400000000     0          
O631     O      0.555000000000     0.696600000000     0.821300000000     0          
O632     O      0.618000000000     0.643500000000     0.846000000000     0          
H633     H      0.655740000000     0.310460000000     0.764150000000     0          
H634     H      0.693020000000     0.403640000000     0.779270000000     0          
H635     H      0.620640000000     0.587610000000     0.760250000000     0          
H636     H      0.566950000000     0.657750000000     0.787780000000     0          
H637     H      0.695570000000     0.566800000000     0.834030000000     0          
H638     H      0.749120000000     0.496820000000     0.806520000000     0          
O639     O      0.584000000000     0.553000000000     0.870000000000     0          
H640     H      0.584000000000     0.606660000000     0.870000000000     0          
C641     C      0.065800000000     0.500000000000     0.000000000000     0          
C642     C      0.142700000000     0.500000000000     0.000000000000     0          
N643     N      0.278000000000     0.500000000000     0.000000000000     0          
C644     C      0.565800000000     0.000000000000     0.500000000000     0          
C645     C      0.642700000000     0.000000000000     0.500000000000     0          
N646     N      0.778000000000     0.000000000000     0.500000000000     0          
C647     C      0.434200000000     0.500000000000     0.500000000000     0          
C648     C      0.357300000000     0.500000000000     0.500000000000     0          
N649     N      0.222000000000     0.500000000000     0.500000000000     0          
C650     C      0.934200000000     0.000000000000     0.000000000000     0          
C651     C      0.857300000000     0.000000000000     0.000000000000     0          
N652     N      0.722000000000     0.000000000000     0.000000000000     0          
C653     C      0.750000000000     0.815800000000     0.250000000000     0          
C654     C      0.750000000000     0.892700000000     0.250000000000     0          
N655     N      0.750000000000     0.028000000000     0.250000000000     0          
C656     C      0.250000000000     0.315800000000     0.750000000000     0          
C657     C      0.250000000000     0.392700000000     0.750000000000     0          
N658     N      0.250000000000     0.528000000000     0.750000000000     0          
C659     C      0.750000000000     0.184200000000     0.750000000000     0          
C660     C      0.750000000000     0.107300000000     0.750000000000     0          
N661     N      0.750000000000     0.972000000000     0.750000000000     0          
C662     C      0.250000000000     0.684200000000     0.250000000000     0          
C663     C      0.250000000000     0.607300000000     0.250000000000     0          
N664     N      0.250000000000     0.472000000000     0.250000000000     0          
C665     C      0.934200000000     0.500000000000     0.000000000000     0          
C666     C      0.857300000000     0.500000000000     0.000000000000     0          
N667     N      0.722000000000     0.500000000000     0.000000000000     0          
C668     C      0.434200000000     0.000000000000     0.500000000000     0          
C669     C      0.357300000000     0.000000000000     0.500000000000     0          
N670     N      0.222000000000     0.000000000000     0.500000000000     0          
C671     C      0.565800000000     0.500000000000     0.500000000000     0          
C672     C      0.642700000000     0.500000000000     0.500000000000     0          
N673     N      0.778000000000     0.500000000000     0.500000000000     0          
C674     C      0.065800000000     0.000000000000     0.000000000000     0          
C675     C      0.142700000000     0.000000000000     0.000000000000     0          
N676     N      0.278000000000     0.000000000000     0.000000000000     0          
C677     C      0.250000000000     0.184200000000     0.750000000000     0          
C678     C      0.250000000000     0.107300000000     0.750000000000     0          
N679     N      0.250000000000     0.972000000000     0.750000000000     0          
C680     C      0.750000000000     0.684200000000     0.250000000000     0          
C681     C      0.750000000000     0.607300000000     0.250000000000     0          
N682     N      0.750000000000     0.472000000000     0.250000000000     0          
C683     C      0.250000000000     0.815800000000     0.250000000000     0          
C684     C      0.250000000000     0.892700000000     0.250000000000     0          
N685     N      0.250000000000     0.028000000000     0.250000000000     0          
C686     C      0.750000000000     0.315800000000     0.750000000000     0          
C687     C      0.750000000000     0.392700000000     0.750000000000     0          
N688     N      0.750000000000     0.528000000000     0.750000000000     0          
Zr689    Zr     0.500000000000     0.250000000000     0.091560000000     0          
Zr690    Zr     0.000000000000     0.750000000000     0.591560000000     0          
Zr691    Zr     0.000000000000     0.250000000000     0.341560000000     0          
Zr692    Zr     0.500000000000     0.750000000000     0.841560000000     0          
Zr693    Zr     0.000000000000     0.250000000000     0.408440000000     0          
Zr694    Zr     0.500000000000     0.750000000000     0.908440000000     0          
Zr695    Zr     0.500000000000     0.250000000000     0.158440000000     0          
Zr696    Zr     0.000000000000     0.750000000000     0.658440000000     0          
Zr697    Zr     0.418100000000     0.331900000000     0.125000000000     0          
Zr698    Zr     0.081900000000     0.668100000000     0.625000000000     0          
Zr699    Zr     0.918100000000     0.168100000000     0.375000000000     0          
Zr700    Zr     0.581900000000     0.831900000000     0.875000000000     0          
Zr701    Zr     0.081900000000     0.331900000000     0.375000000000     0          
Zr702    Zr     0.418100000000     0.668100000000     0.875000000000     0          
Zr703    Zr     0.581900000000     0.168100000000     0.125000000000     0          
Zr704    Zr     0.918100000000     0.831900000000     0.625000000000     0          
Zr705    Zr     0.581900000000     0.668100000000     0.875000000000     0          
Zr706    Zr     0.918100000000     0.331900000000     0.375000000000     0          
Zr707    Zr     0.081900000000     0.831900000000     0.625000000000     0          
Zr708    Zr     0.418100000000     0.168100000000     0.125000000000     0          
Zr709    Zr     0.918100000000     0.668100000000     0.625000000000     0          
Zr710    Zr     0.581900000000     0.331900000000     0.125000000000     0          
Zr711    Zr     0.418100000000     0.831900000000     0.875000000000     0          
Zr712    Zr     0.081900000000     0.168100000000     0.375000000000     0          
O713     O      0.398000000000     0.250000000000     0.103700000000     0          
O714     O      0.102000000000     0.750000000000     0.603700000000     0          
O715     O      0.000000000000     0.148000000000     0.353700000000     0          
O716     O      0.500000000000     0.648000000000     0.853700000000     0          
O717     O      0.500000000000     0.852000000000     0.853700000000     0          
O718     O      0.000000000000     0.352000000000     0.353700000000     0          
O719     O      0.102000000000     0.250000000000     0.396300000000     0          
O720     O      0.398000000000     0.750000000000     0.896300000000     0          
O721     O      0.898000000000     0.250000000000     0.396300000000     0          
O722     O      0.500000000000     0.148000000000     0.146300000000     0          
O723     O      0.000000000000     0.648000000000     0.646300000000     0          
O724     O      0.000000000000     0.852000000000     0.646300000000     0          
O725     O      0.500000000000     0.352000000000     0.146300000000     0          
O726     O      0.602000000000     0.750000000000     0.896300000000     0          
O727     O      0.898000000000     0.750000000000     0.603700000000     0          
O728     O      0.602000000000     0.250000000000     0.103700000000     0          
O729     O      0.500000000000     0.348000000000     0.105900000000     0          
O730     O      0.000000000000     0.848000000000     0.605900000000     0          
O731     O      0.000000000000     0.652000000000     0.605900000000     0          
O732     O      0.500000000000     0.152000000000     0.105900000000     0          
O733     O      0.902000000000     0.250000000000     0.355900000000     0          
O734     O      0.598000000000     0.750000000000     0.855900000000     0          
O735     O      0.000000000000     0.348000000000     0.394100000000     0          
O736     O      0.500000000000     0.848000000000     0.894100000000     0          
O737     O      0.500000000000     0.652000000000     0.894100000000     0          
O738     O      0.000000000000     0.152000000000     0.394100000000     0          
O739     O      0.598000000000     0.250000000000     0.144100000000     0          
O740     O      0.902000000000     0.750000000000     0.644100000000     0          
O741     O      0.098000000000     0.750000000000     0.644100000000     0          
O742     O      0.402000000000     0.250000000000     0.144100000000     0          
O743     O      0.402000000000     0.750000000000     0.855900000000     0          
O744     O      0.098000000000     0.250000000000     0.355900000000     0          


