data_VISZEF

_audit_creation_method RASPA-1.0
_audit_creation_date 2020-11-2
_audit_author_name 'Rocio Bueno-Perez'

_cell_length_a    20.56
_cell_length_b    20.56
_cell_length_c    67.1128
_cell_angle_alpha 90
_cell_angle_beta  90
_cell_angle_gamma 90
_cell_volume      28369.5

_symmetry_cell_setting          tetragonal
_symmetry_space_group_name_Hall 'P 1'
_symmetry_space_group_name_H-M  'P 1'
_symmetry_Int_Tables_number     1

_symmetry_equiv_pos_as_xyz 'x,y,z'

loop_
_atom_site_label
_atom_site_type_symbol
_atom_site_fract_x
_atom_site_fract_y
_atom_site_fract_z
_atom_site_charge
C2       C      0.031600000000     0.452000000000     0.008100000000     0          
C4       C      0.171600000000     0.472000000000     0.016500000000     0          
C5       C      0.239200000000     0.474000000000     0.015300000000     0          
C6       C      0.274600000000     0.450000000000     0.029500000000     0          
C7       C      0.333400000000     0.404000000000     0.024400000000     0          
C8       C      0.376000000000     0.375000000000     0.041500000000     0          
C9       C      0.359600000000     0.391000000000     0.063700000000     0          
C10      C      0.300800000000     0.436000000000     0.068800000000     0          
C11      C      0.258300000000     0.465000000000     0.051700000000     0          
C12      C      0.395000000000     0.367000000000     0.077900000000     0          
O7       O      0.442000000000     0.326000000000     0.074000000000     0          
O8       O      0.384000000000     0.383000000000     0.096400000000     0          
H1       H      0.054400000000     0.417400000000     0.013900000000     0          
H2       H      0.148900000000     0.453000000000     0.027200000000     0          
H3       H      0.343200000000     0.394900000000     0.011100000000     0          
H4       H      0.411200000000     0.348000000000     0.038400000000     0          
H5       H      0.291000000000     0.446000000000     0.082100000000     0          
H6       H      0.223100000000     0.493000000000     0.054800000000     0          
C1       C      0.063300000000     0.500000000000     0.000000000000     0          
C3       C      0.136500000000     0.500000000000     0.000000000000     0          
N1       N      0.272000000000     0.500000000000     0.000000000000     0          
Zr1      Zr     0.500000000000     0.250000000000     0.086280000000     0          
Zr2      Zr     0.418200000000     0.331800000000     0.125000000000     0          
O9       O      0.413000000000     0.250000000000     0.104100000000     0          
O10      O      0.500000000000     0.335000000000     0.105200000000     0          
C2       C      0.798000000000     0.781600000000     0.258100000000     0          
C4       C      0.778000000000     0.921600000000     0.266500000000     0          
C5       C      0.776000000000     0.989200000000     0.265300000000     0          
C6       C      0.800000000000     0.024600000000     0.279500000000     0          
C7       C      0.846000000000     0.083400000000     0.274400000000     0          
C8       C      0.875000000000     0.126000000000     0.291500000000     0          
C9       C      0.859000000000     0.109600000000     0.313700000000     0          
C10      C      0.814000000000     0.050800000000     0.318800000000     0          
C11      C      0.785000000000     0.008300000000     0.301700000000     0          
C12      C      0.883000000000     0.145000000000     0.327900000000     0          
O7       O      0.924000000000     0.192000000000     0.324000000000     0          
O8       O      0.867000000000     0.134000000000     0.346400000000     0          
H1       H      0.832600000000     0.804400000000     0.263900000000     0          
H2       H      0.797000000000     0.898900000000     0.277200000000     0          
H3       H      0.855100000000     0.093200000000     0.261100000000     0          
H4       H      0.902000000000     0.161200000000     0.288400000000     0          
H5       H      0.804000000000     0.041000000000     0.332100000000     0          
H6       H      0.757000000000     0.973100000000     0.304800000000     0          
C1       C      0.750000000000     0.813300000000     0.250000000000     0          
C3       C      0.750000000000     0.886500000000     0.250000000000     0          
N1       N      0.750000000000     0.022000000000     0.250000000000     0          
Zr1      Zr     0.000000000000     0.250000000000     0.336280000000     0          
Zr2      Zr     0.918200000000     0.168200000000     0.375000000000     0          
O9       O      0.000000000000     0.163000000000     0.354100000000     0          
O10      O      0.915000000000     0.250000000000     0.355200000000     0          
C2       C      0.468400000000     0.548000000000     0.508100000000     0          
C4       C      0.328400000000     0.528000000000     0.516500000000     0          
C5       C      0.260800000000     0.526000000000     0.515300000000     0          
C6       C      0.225400000000     0.550000000000     0.529500000000     0          
C7       C      0.166600000000     0.596000000000     0.524400000000     0          
C8       C      0.124000000000     0.625000000000     0.541500000000     0          
C9       C      0.140400000000     0.609000000000     0.563700000000     0          
C10      C      0.199200000000     0.564000000000     0.568800000000     0          
C11      C      0.241700000000     0.535000000000     0.551700000000     0          
C12      C      0.105000000000     0.633000000000     0.577900000000     0          
O7       O      0.058000000000     0.674000000000     0.574000000000     0          
O8       O      0.116000000000     0.617000000000     0.596400000000     0          
H1       H      0.445600000000     0.582600000000     0.513900000000     0          
H2       H      0.351100000000     0.547000000000     0.527200000000     0          
H3       H      0.156800000000     0.605100000000     0.511100000000     0          
H4       H      0.088800000000     0.652000000000     0.538400000000     0          
H5       H      0.209000000000     0.554000000000     0.582100000000     0          
H6       H      0.276900000000     0.507000000000     0.554800000000     0          
C1       C      0.436700000000     0.500000000000     0.500000000000     0          
C3       C      0.363500000000     0.500000000000     0.500000000000     0          
N1       N      0.228000000000     0.500000000000     0.500000000000     0          
Zr1      Zr     0.000000000000     0.750000000000     0.586280000000     0          
Zr2      Zr     0.081800000000     0.668200000000     0.625000000000     0          
O9       O      0.087000000000     0.750000000000     0.604100000000     0          
O10      O      0.000000000000     0.665000000000     0.605200000000     0          
C2       C      0.702000000000     0.218400000000     0.758100000000     0          
C4       C      0.722000000000     0.078400000000     0.766500000000     0          
C5       C      0.724000000000     0.010800000000     0.765300000000     0          
C6       C      0.700000000000     0.975400000000     0.779500000000     0          
C7       C      0.654000000000     0.916600000000     0.774400000000     0          
C8       C      0.625000000000     0.874000000000     0.791500000000     0          
C9       C      0.641000000000     0.890400000000     0.813700000000     0          
C10      C      0.686000000000     0.949200000000     0.818800000000     0          
C11      C      0.715000000000     0.991700000000     0.801700000000     0          
C12      C      0.617000000000     0.855000000000     0.827900000000     0          
O7       O      0.576000000000     0.808000000000     0.824000000000     0          
O8       O      0.633000000000     0.866000000000     0.846400000000     0          
H1       H      0.667400000000     0.195600000000     0.763900000000     0          
H2       H      0.703000000000     0.101100000000     0.777200000000     0          
H3       H      0.644900000000     0.906800000000     0.761100000000     0          
H4       H      0.598000000000     0.838800000000     0.788400000000     0          
H5       H      0.696000000000     0.959000000000     0.832100000000     0          
H6       H      0.743000000000     0.026900000000     0.804800000000     0          
C1       C      0.750000000000     0.186700000000     0.750000000000     0          
C3       C      0.750000000000     0.113500000000     0.750000000000     0          
N1       N      0.750000000000     0.978000000000     0.750000000000     0          
Zr1      Zr     0.500000000000     0.750000000000     0.836280000000     0          
Zr2      Zr     0.581800000000     0.831800000000     0.875000000000     0          
O9       O      0.500000000000     0.837000000000     0.854100000000     0          
O10      O      0.585000000000     0.750000000000     0.855200000000     0          
C2       C      0.031600000000     0.548000000000     0.991900000000     0          
C4       C      0.171600000000     0.528000000000     0.983500000000     0          
C5       C      0.239200000000     0.526000000000     0.984700000000     0          
C6       C      0.274600000000     0.550000000000     0.970500000000     0          
C7       C      0.333400000000     0.596000000000     0.975600000000     0          
C8       C      0.376000000000     0.625000000000     0.958500000000     0          
C9       C      0.359600000000     0.609000000000     0.936300000000     0          
C10      C      0.300800000000     0.564000000000     0.931200000000     0          
C11      C      0.258300000000     0.535000000000     0.948300000000     0          
C12      C      0.395000000000     0.633000000000     0.922100000000     0          
O7       O      0.442000000000     0.674000000000     0.926000000000     0          
O8       O      0.384000000000     0.617000000000     0.903600000000     0          
H1       H      0.054400000000     0.582600000000     0.986100000000     0          
H2       H      0.148900000000     0.547000000000     0.972800000000     0          
H3       H      0.343200000000     0.605100000000     0.988900000000     0          
H4       H      0.411200000000     0.652000000000     0.961600000000     0          
H5       H      0.291000000000     0.554000000000     0.917900000000     0          
H6       H      0.223100000000     0.507000000000     0.945200000000     0          
Zr1      Zr     0.500000000000     0.750000000000     0.913720000000     0          
Zr2      Zr     0.418200000000     0.668200000000     0.875000000000     0          
O9       O      0.413000000000     0.750000000000     0.895900000000     0          
O10      O      0.500000000000     0.665000000000     0.894800000000     0          
C2       C      0.702000000000     0.781600000000     0.241900000000     0          
C4       C      0.722000000000     0.921600000000     0.233500000000     0          
C5       C      0.724000000000     0.989200000000     0.234700000000     0          
C6       C      0.700000000000     0.024600000000     0.220500000000     0          
C7       C      0.654000000000     0.083400000000     0.225600000000     0          
C8       C      0.625000000000     0.126000000000     0.208500000000     0          
C9       C      0.641000000000     0.109600000000     0.186300000000     0          
C10      C      0.686000000000     0.050800000000     0.181200000000     0          
C11      C      0.715000000000     0.008300000000     0.198300000000     0          
C12      C      0.617000000000     0.145000000000     0.172100000000     0          
O7       O      0.576000000000     0.192000000000     0.176000000000     0          
O8       O      0.633000000000     0.134000000000     0.153600000000     0          
H1       H      0.667400000000     0.804400000000     0.236100000000     0          
H2       H      0.703000000000     0.898900000000     0.222800000000     0          
H3       H      0.644900000000     0.093200000000     0.238900000000     0          
H4       H      0.598000000000     0.161200000000     0.211600000000     0          
H5       H      0.696000000000     0.041000000000     0.167900000000     0          
H6       H      0.743000000000     0.973100000000     0.195200000000     0          
Zr1      Zr     0.500000000000     0.250000000000     0.163720000000     0          
Zr2      Zr     0.581800000000     0.168200000000     0.125000000000     0          
O9       O      0.500000000000     0.163000000000     0.145900000000     0          
O10      O      0.585000000000     0.250000000000     0.144800000000     0          
C2       C      0.468400000000     0.452000000000     0.491900000000     0          
C4       C      0.328400000000     0.472000000000     0.483500000000     0          
C5       C      0.260800000000     0.474000000000     0.484700000000     0          
C6       C      0.225400000000     0.450000000000     0.470500000000     0          
C7       C      0.166600000000     0.404000000000     0.475600000000     0          
C8       C      0.124000000000     0.375000000000     0.458500000000     0          
C9       C      0.140400000000     0.391000000000     0.436300000000     0          
C10      C      0.199200000000     0.436000000000     0.431200000000     0          
C11      C      0.241700000000     0.465000000000     0.448300000000     0          
C12      C      0.105000000000     0.367000000000     0.422100000000     0          
O7       O      0.058000000000     0.326000000000     0.426000000000     0          
O8       O      0.116000000000     0.383000000000     0.403600000000     0          
H1       H      0.445600000000     0.417400000000     0.486100000000     0          
H2       H      0.351100000000     0.453000000000     0.472800000000     0          
H3       H      0.156800000000     0.394900000000     0.488900000000     0          
H4       H      0.088800000000     0.348000000000     0.461600000000     0          
H5       H      0.209000000000     0.446000000000     0.417900000000     0          
H6       H      0.276900000000     0.493000000000     0.445200000000     0          
Zr1      Zr     0.000000000000     0.250000000000     0.413720000000     0          
Zr2      Zr     0.081800000000     0.331800000000     0.375000000000     0          
O9       O      0.087000000000     0.250000000000     0.395900000000     0          
O10      O      0.000000000000     0.335000000000     0.394800000000     0          
C2       C      0.798000000000     0.218400000000     0.741900000000     0          
C4       C      0.778000000000     0.078400000000     0.733500000000     0          
C5       C      0.776000000000     0.010800000000     0.734700000000     0          
C6       C      0.800000000000     0.975400000000     0.720500000000     0          
C7       C      0.846000000000     0.916600000000     0.725600000000     0          
C8       C      0.875000000000     0.874000000000     0.708500000000     0          
C9       C      0.859000000000     0.890400000000     0.686300000000     0          
C10      C      0.814000000000     0.949200000000     0.681200000000     0          
C11      C      0.785000000000     0.991700000000     0.698300000000     0          
C12      C      0.883000000000     0.855000000000     0.672100000000     0          
O7       O      0.924000000000     0.808000000000     0.676000000000     0          
O8       O      0.867000000000     0.866000000000     0.653600000000     0          
H1       H      0.832600000000     0.195600000000     0.736100000000     0          
H2       H      0.797000000000     0.101100000000     0.722800000000     0          
H3       H      0.855100000000     0.906800000000     0.738900000000     0          
H4       H      0.902000000000     0.838800000000     0.711600000000     0          
H5       H      0.804000000000     0.959000000000     0.667900000000     0          
H6       H      0.757000000000     0.026900000000     0.695200000000     0          
Zr1      Zr     0.000000000000     0.750000000000     0.663720000000     0          
Zr2      Zr     0.918200000000     0.831800000000     0.625000000000     0          
O9       O      0.000000000000     0.837000000000     0.645900000000     0          
O10      O      0.915000000000     0.750000000000     0.644800000000     0          
C2       C      0.968400000000     0.548000000000     0.991900000000     0          
C4       C      0.828400000000     0.528000000000     0.983500000000     0          
C5       C      0.760800000000     0.526000000000     0.984700000000     0          
C6       C      0.725400000000     0.550000000000     0.970500000000     0          
C7       C      0.666600000000     0.596000000000     0.975600000000     0          
C8       C      0.624000000000     0.625000000000     0.958500000000     0          
C9       C      0.640400000000     0.609000000000     0.936300000000     0          
C10      C      0.699200000000     0.564000000000     0.931200000000     0          
C11      C      0.741700000000     0.535000000000     0.948300000000     0          
C12      C      0.605000000000     0.633000000000     0.922100000000     0          
O7       O      0.558000000000     0.674000000000     0.926000000000     0          
O8       O      0.616000000000     0.617000000000     0.903600000000     0          
H1       H      0.945600000000     0.582600000000     0.986100000000     0          
H2       H      0.851100000000     0.547000000000     0.972800000000     0          
H3       H      0.656800000000     0.605100000000     0.988900000000     0          
H4       H      0.588800000000     0.652000000000     0.961600000000     0          
H5       H      0.709000000000     0.554000000000     0.917900000000     0          
H6       H      0.776900000000     0.507000000000     0.945200000000     0          
C1       C      0.936700000000     0.500000000000     0.000000000000     0          
C3       C      0.863500000000     0.500000000000     0.000000000000     0          
N1       N      0.728000000000     0.500000000000     0.000000000000     0          
Zr2      Zr     0.581800000000     0.668200000000     0.875000000000     0          
O9       O      0.587000000000     0.750000000000     0.895900000000     0          
C2       C      0.202000000000     0.218400000000     0.741900000000     0          
C4       C      0.222000000000     0.078400000000     0.733500000000     0          
C5       C      0.224000000000     0.010800000000     0.734700000000     0          
C6       C      0.200000000000     0.975400000000     0.720500000000     0          
C7       C      0.154000000000     0.916600000000     0.725600000000     0          
C8       C      0.125000000000     0.874000000000     0.708500000000     0          
C9       C      0.141000000000     0.890400000000     0.686300000000     0          
C10      C      0.186000000000     0.949200000000     0.681200000000     0          
C11      C      0.215000000000     0.991700000000     0.698300000000     0          
C12      C      0.117000000000     0.855000000000     0.672100000000     0          
O7       O      0.076000000000     0.808000000000     0.676000000000     0          
O8       O      0.133000000000     0.866000000000     0.653600000000     0          
H1       H      0.167400000000     0.195600000000     0.736100000000     0          
H2       H      0.203000000000     0.101100000000     0.722800000000     0          
H3       H      0.144900000000     0.906800000000     0.738900000000     0          
H4       H      0.098000000000     0.838800000000     0.711600000000     0          
H5       H      0.196000000000     0.959000000000     0.667900000000     0          
H6       H      0.243000000000     0.026900000000     0.695200000000     0          
C1       C      0.250000000000     0.186700000000     0.750000000000     0          
C3       C      0.250000000000     0.113500000000     0.750000000000     0          
N1       N      0.250000000000     0.978000000000     0.750000000000     0          
Zr2      Zr     0.081800000000     0.831800000000     0.625000000000     0          
O10      O      0.085000000000     0.750000000000     0.644800000000     0          
C2       C      0.531600000000     0.452000000000     0.491900000000     0          
C4       C      0.671600000000     0.472000000000     0.483500000000     0          
C5       C      0.739200000000     0.474000000000     0.484700000000     0          
C6       C      0.774600000000     0.450000000000     0.470500000000     0          
C7       C      0.833400000000     0.404000000000     0.475600000000     0          
C8       C      0.876000000000     0.375000000000     0.458500000000     0          
C9       C      0.859600000000     0.391000000000     0.436300000000     0          
C10      C      0.800800000000     0.436000000000     0.431200000000     0          
C11      C      0.758300000000     0.465000000000     0.448300000000     0          
C12      C      0.895000000000     0.367000000000     0.422100000000     0          
O7       O      0.942000000000     0.326000000000     0.426000000000     0          
O8       O      0.884000000000     0.383000000000     0.403600000000     0          
H1       H      0.554400000000     0.417400000000     0.486100000000     0          
H2       H      0.648900000000     0.453000000000     0.472800000000     0          
H3       H      0.843200000000     0.394900000000     0.488900000000     0          
H4       H      0.911200000000     0.348000000000     0.461600000000     0          
H5       H      0.791000000000     0.446000000000     0.417900000000     0          
H6       H      0.723100000000     0.493000000000     0.445200000000     0          
C1       C      0.563300000000     0.500000000000     0.500000000000     0          
C3       C      0.636500000000     0.500000000000     0.500000000000     0          
N1       N      0.772000000000     0.500000000000     0.500000000000     0          
Zr2      Zr     0.918200000000     0.331800000000     0.375000000000     0          
O9       O      0.913000000000     0.250000000000     0.395900000000     0          
C2       C      0.298000000000     0.781600000000     0.241900000000     0          
C4       C      0.278000000000     0.921600000000     0.233500000000     0          
C5       C      0.276000000000     0.989200000000     0.234700000000     0          
C6       C      0.300000000000     0.024600000000     0.220500000000     0          
C7       C      0.346000000000     0.083400000000     0.225600000000     0          
C8       C      0.375000000000     0.126000000000     0.208500000000     0          
C9       C      0.359000000000     0.109600000000     0.186300000000     0          
C10      C      0.314000000000     0.050800000000     0.181200000000     0          
C11      C      0.285000000000     0.008300000000     0.198300000000     0          
C12      C      0.383000000000     0.145000000000     0.172100000000     0          
O7       O      0.424000000000     0.192000000000     0.176000000000     0          
O8       O      0.367000000000     0.134000000000     0.153600000000     0          
H1       H      0.332600000000     0.804400000000     0.236100000000     0          
H2       H      0.297000000000     0.898900000000     0.222800000000     0          
H3       H      0.355100000000     0.093200000000     0.238900000000     0          
H4       H      0.402000000000     0.161200000000     0.211600000000     0          
H5       H      0.304000000000     0.041000000000     0.167900000000     0          
H6       H      0.257000000000     0.973100000000     0.195200000000     0          
C1       C      0.250000000000     0.813300000000     0.250000000000     0          
C3       C      0.250000000000     0.886500000000     0.250000000000     0          
N1       N      0.250000000000     0.022000000000     0.250000000000     0          
Zr2      Zr     0.418200000000     0.168200000000     0.125000000000     0          
O10      O      0.415000000000     0.250000000000     0.144800000000     0          
C2       C      0.968400000000     0.452000000000     0.008100000000     0          
C4       C      0.828400000000     0.472000000000     0.016500000000     0          
C5       C      0.760800000000     0.474000000000     0.015300000000     0          
C6       C      0.725400000000     0.450000000000     0.029500000000     0          
C7       C      0.666600000000     0.404000000000     0.024400000000     0          
C8       C      0.624000000000     0.375000000000     0.041500000000     0          
C9       C      0.640400000000     0.391000000000     0.063700000000     0          
C10      C      0.699200000000     0.436000000000     0.068800000000     0          
C11      C      0.741700000000     0.465000000000     0.051700000000     0          
C12      C      0.605000000000     0.367000000000     0.077900000000     0          
O7       O      0.558000000000     0.326000000000     0.074000000000     0          
O8       O      0.616000000000     0.383000000000     0.096400000000     0          
H1       H      0.945600000000     0.417400000000     0.013900000000     0          
H2       H      0.851100000000     0.453000000000     0.027200000000     0          
H3       H      0.656800000000     0.394900000000     0.011100000000     0          
H4       H      0.588800000000     0.348000000000     0.038400000000     0          
H5       H      0.709000000000     0.446000000000     0.082100000000     0          
H6       H      0.776900000000     0.493000000000     0.054800000000     0          
Zr2      Zr     0.581800000000     0.331800000000     0.125000000000     0          
O9       O      0.587000000000     0.250000000000     0.104100000000     0          
C2       C      0.298000000000     0.218400000000     0.758100000000     0          
C4       C      0.278000000000     0.078400000000     0.766500000000     0          
C5       C      0.276000000000     0.010800000000     0.765300000000     0          
C6       C      0.300000000000     0.975400000000     0.779500000000     0          
C7       C      0.346000000000     0.916600000000     0.774400000000     0          
C8       C      0.375000000000     0.874000000000     0.791500000000     0          
C9       C      0.359000000000     0.890400000000     0.813700000000     0          
C10      C      0.314000000000     0.949200000000     0.818800000000     0          
C11      C      0.285000000000     0.991700000000     0.801700000000     0          
C12      C      0.383000000000     0.855000000000     0.827900000000     0          
O7       O      0.424000000000     0.808000000000     0.824000000000     0          
O8       O      0.367000000000     0.866000000000     0.846400000000     0          
H1       H      0.332600000000     0.195600000000     0.763900000000     0          
H2       H      0.297000000000     0.101100000000     0.777200000000     0          
H3       H      0.355100000000     0.906800000000     0.761100000000     0          
H4       H      0.402000000000     0.838800000000     0.788400000000     0          
H5       H      0.304000000000     0.959000000000     0.832100000000     0          
H6       H      0.257000000000     0.026900000000     0.804800000000     0          
Zr2      Zr     0.418200000000     0.831800000000     0.875000000000     0          
O10      O      0.415000000000     0.750000000000     0.855200000000     0          
C2       C      0.531600000000     0.548000000000     0.508100000000     0          
C4       C      0.671600000000     0.528000000000     0.516500000000     0          
C5       C      0.739200000000     0.526000000000     0.515300000000     0          
C6       C      0.774600000000     0.550000000000     0.529500000000     0          
C7       C      0.833400000000     0.596000000000     0.524400000000     0          
C8       C      0.876000000000     0.625000000000     0.541500000000     0          
C9       C      0.859600000000     0.609000000000     0.563700000000     0          
C10      C      0.800800000000     0.564000000000     0.568800000000     0          
C11      C      0.758300000000     0.535000000000     0.551700000000     0          
C12      C      0.895000000000     0.633000000000     0.577900000000     0          
O7       O      0.942000000000     0.674000000000     0.574000000000     0          
O8       O      0.884000000000     0.617000000000     0.596400000000     0          
H1       H      0.554400000000     0.582600000000     0.513900000000     0          
H2       H      0.648900000000     0.547000000000     0.527200000000     0          
H3       H      0.843200000000     0.605100000000     0.511100000000     0          
H4       H      0.911200000000     0.652000000000     0.538400000000     0          
H5       H      0.791000000000     0.554000000000     0.582100000000     0          
H6       H      0.723100000000     0.507000000000     0.554800000000     0          
Zr2      Zr     0.918200000000     0.668200000000     0.625000000000     0          
O9       O      0.913000000000     0.750000000000     0.604100000000     0          
C2       C      0.202000000000     0.781600000000     0.258100000000     0          
C4       C      0.222000000000     0.921600000000     0.266500000000     0          
C5       C      0.224000000000     0.989200000000     0.265300000000     0          
C6       C      0.200000000000     0.024600000000     0.279500000000     0          
C7       C      0.154000000000     0.083400000000     0.274400000000     0          
C8       C      0.125000000000     0.126000000000     0.291500000000     0          
C9       C      0.141000000000     0.109600000000     0.313700000000     0          
C10      C      0.186000000000     0.050800000000     0.318800000000     0          
C11      C      0.215000000000     0.008300000000     0.301700000000     0          
C12      C      0.117000000000     0.145000000000     0.327900000000     0          
O7       O      0.076000000000     0.192000000000     0.324000000000     0          
O8       O      0.133000000000     0.134000000000     0.346400000000     0          
H1       H      0.167400000000     0.804400000000     0.263900000000     0          
H2       H      0.203000000000     0.898900000000     0.277200000000     0          
H3       H      0.144900000000     0.093200000000     0.261100000000     0          
H4       H      0.098000000000     0.161200000000     0.288400000000     0          
H5       H      0.196000000000     0.041000000000     0.332100000000     0          
H6       H      0.243000000000     0.973100000000     0.304800000000     0          
Zr2      Zr     0.081800000000     0.168200000000     0.375000000000     0          
O10      O      0.085000000000     0.250000000000     0.355200000000     0          
C2       C      0.531600000000     0.952000000000     0.508100000000     0          
C4       C      0.671600000000     0.972000000000     0.516500000000     0          
C5       C      0.739200000000     0.974000000000     0.515300000000     0          
C6       C      0.774600000000     0.950000000000     0.529500000000     0          
C7       C      0.833400000000     0.904000000000     0.524400000000     0          
C8       C      0.876000000000     0.875000000000     0.541500000000     0          
C9       C      0.859600000000     0.891000000000     0.563700000000     0          
C10      C      0.800800000000     0.936000000000     0.568800000000     0          
C11      C      0.758300000000     0.965000000000     0.551700000000     0          
C12      C      0.895000000000     0.867000000000     0.577900000000     0          
O7       O      0.942000000000     0.826000000000     0.574000000000     0          
O8       O      0.884000000000     0.883000000000     0.596400000000     0          
H1       H      0.554400000000     0.917400000000     0.513900000000     0          
H2       H      0.648900000000     0.953000000000     0.527200000000     0          
H3       H      0.843200000000     0.894900000000     0.511100000000     0          
H4       H      0.911200000000     0.848000000000     0.538400000000     0          
H5       H      0.791000000000     0.946000000000     0.582100000000     0          
H6       H      0.723100000000     0.993000000000     0.554800000000     0          
C1       C      0.563300000000     0.000000000000     0.500000000000     0          
C3       C      0.636500000000     0.000000000000     0.500000000000     0          
N1       N      0.772000000000     0.000000000000     0.500000000000     0          
O10      O      0.000000000000     0.835000000000     0.605200000000     0          
C2       C      0.298000000000     0.281600000000     0.758100000000     0          
C4       C      0.278000000000     0.421600000000     0.766500000000     0          
C5       C      0.276000000000     0.489200000000     0.765300000000     0          
C6       C      0.300000000000     0.524600000000     0.779500000000     0          
C7       C      0.346000000000     0.583400000000     0.774400000000     0          
C8       C      0.375000000000     0.626000000000     0.791500000000     0          
C9       C      0.359000000000     0.609600000000     0.813700000000     0          
C10      C      0.314000000000     0.550800000000     0.818800000000     0          
C11      C      0.285000000000     0.508300000000     0.801700000000     0          
C12      C      0.383000000000     0.645000000000     0.827900000000     0          
O7       O      0.424000000000     0.692000000000     0.824000000000     0          
O8       O      0.367000000000     0.634000000000     0.846400000000     0          
H1       H      0.332600000000     0.304400000000     0.763900000000     0          
H2       H      0.297000000000     0.398900000000     0.777200000000     0          
H3       H      0.355100000000     0.593200000000     0.761100000000     0          
H4       H      0.402000000000     0.661200000000     0.788400000000     0          
H5       H      0.304000000000     0.541000000000     0.832100000000     0          
H6       H      0.257000000000     0.473100000000     0.804800000000     0          
C1       C      0.250000000000     0.313300000000     0.750000000000     0          
C3       C      0.250000000000     0.386500000000     0.750000000000     0          
N1       N      0.250000000000     0.522000000000     0.750000000000     0          
O9       O      0.500000000000     0.663000000000     0.854100000000     0          
C2       C      0.968400000000     0.048000000000     0.008100000000     0          
C4       C      0.828400000000     0.028000000000     0.016500000000     0          
C5       C      0.760800000000     0.026000000000     0.015300000000     0          
C6       C      0.725400000000     0.050000000000     0.029500000000     0          
C7       C      0.666600000000     0.096000000000     0.024400000000     0          
C8       C      0.624000000000     0.125000000000     0.041500000000     0          
C9       C      0.640400000000     0.109000000000     0.063700000000     0          
C10      C      0.699200000000     0.064000000000     0.068800000000     0          
C11      C      0.741700000000     0.035000000000     0.051700000000     0          
C12      C      0.605000000000     0.133000000000     0.077900000000     0          
O7       O      0.558000000000     0.174000000000     0.074000000000     0          
O8       O      0.616000000000     0.117000000000     0.096400000000     0          
H1       H      0.945600000000     0.082600000000     0.013900000000     0          
H2       H      0.851100000000     0.047000000000     0.027200000000     0          
H3       H      0.656800000000     0.105100000000     0.011100000000     0          
H4       H      0.588800000000     0.152000000000     0.038400000000     0          
H5       H      0.709000000000     0.054000000000     0.082100000000     0          
H6       H      0.776900000000     0.007000000000     0.054800000000     0          
C1       C      0.936700000000     0.000000000000     0.000000000000     0          
C3       C      0.863500000000     0.000000000000     0.000000000000     0          
N1       N      0.728000000000     0.000000000000     0.000000000000     0          
O10      O      0.500000000000     0.165000000000     0.105200000000     0          
C2       C      0.202000000000     0.718400000000     0.258100000000     0          
C4       C      0.222000000000     0.578400000000     0.266500000000     0          
C5       C      0.224000000000     0.510800000000     0.265300000000     0          
C6       C      0.200000000000     0.475400000000     0.279500000000     0          
C7       C      0.154000000000     0.416600000000     0.274400000000     0          
C8       C      0.125000000000     0.374000000000     0.291500000000     0          
C9       C      0.141000000000     0.390400000000     0.313700000000     0          
C10      C      0.186000000000     0.449200000000     0.318800000000     0          
C11      C      0.215000000000     0.491700000000     0.301700000000     0          
C12      C      0.117000000000     0.355000000000     0.327900000000     0          
O7       O      0.076000000000     0.308000000000     0.324000000000     0          
O8       O      0.133000000000     0.366000000000     0.346400000000     0          
H1       H      0.167400000000     0.695600000000     0.263900000000     0          
H2       H      0.203000000000     0.601100000000     0.277200000000     0          
H3       H      0.144900000000     0.406800000000     0.261100000000     0          
H4       H      0.098000000000     0.338800000000     0.288400000000     0          
H5       H      0.196000000000     0.459000000000     0.332100000000     0          
H6       H      0.243000000000     0.526900000000     0.304800000000     0          
C1       C      0.250000000000     0.686700000000     0.250000000000     0          
C3       C      0.250000000000     0.613500000000     0.250000000000     0          
N1       N      0.250000000000     0.478000000000     0.250000000000     0          
O9       O      0.000000000000     0.337000000000     0.354100000000     0          
C2       C      0.531600000000     0.048000000000     0.491900000000     0          
C4       C      0.671600000000     0.028000000000     0.483500000000     0          
C5       C      0.739200000000     0.026000000000     0.484700000000     0          
C6       C      0.774600000000     0.050000000000     0.470500000000     0          
C7       C      0.833400000000     0.096000000000     0.475600000000     0          
C8       C      0.876000000000     0.125000000000     0.458500000000     0          
C9       C      0.859600000000     0.109000000000     0.436300000000     0          
C10      C      0.800800000000     0.064000000000     0.431200000000     0          
C11      C      0.758300000000     0.035000000000     0.448300000000     0          
C12      C      0.895000000000     0.133000000000     0.422100000000     0          
O7       O      0.942000000000     0.174000000000     0.426000000000     0          
O8       O      0.884000000000     0.117000000000     0.403600000000     0          
H1       H      0.554400000000     0.082600000000     0.486100000000     0          
H2       H      0.648900000000     0.047000000000     0.472800000000     0          
H3       H      0.843200000000     0.105100000000     0.488900000000     0          
H4       H      0.911200000000     0.152000000000     0.461600000000     0          
H5       H      0.791000000000     0.054000000000     0.417900000000     0          
H6       H      0.723100000000     0.007000000000     0.445200000000     0          
O10      O      0.000000000000     0.165000000000     0.394800000000     0          
C2       C      0.202000000000     0.281600000000     0.741900000000     0          
C4       C      0.222000000000     0.421600000000     0.733500000000     0          
C5       C      0.224000000000     0.489200000000     0.734700000000     0          
C6       C      0.200000000000     0.524600000000     0.720500000000     0          
C7       C      0.154000000000     0.583400000000     0.725600000000     0          
C8       C      0.125000000000     0.626000000000     0.708500000000     0          
C9       C      0.141000000000     0.609600000000     0.686300000000     0          
C10      C      0.186000000000     0.550800000000     0.681200000000     0          
C11      C      0.215000000000     0.508300000000     0.698300000000     0          
C12      C      0.117000000000     0.645000000000     0.672100000000     0          
O7       O      0.076000000000     0.692000000000     0.676000000000     0          
O8       O      0.133000000000     0.634000000000     0.653600000000     0          
H1       H      0.167400000000     0.304400000000     0.736100000000     0          
H2       H      0.203000000000     0.398900000000     0.722800000000     0          
H3       H      0.144900000000     0.593200000000     0.738900000000     0          
H4       H      0.098000000000     0.661200000000     0.711600000000     0          
H5       H      0.196000000000     0.541000000000     0.667900000000     0          
H6       H      0.243000000000     0.473100000000     0.695200000000     0          
O9       O      0.000000000000     0.663000000000     0.645900000000     0          
C2       C      0.968400000000     0.952000000000     0.991900000000     0          
C4       C      0.828400000000     0.972000000000     0.983500000000     0          
C5       C      0.760800000000     0.974000000000     0.984700000000     0          
C6       C      0.725400000000     0.950000000000     0.970500000000     0          
C7       C      0.666600000000     0.904000000000     0.975600000000     0          
C8       C      0.624000000000     0.875000000000     0.958500000000     0          
C9       C      0.640400000000     0.891000000000     0.936300000000     0          
C10      C      0.699200000000     0.936000000000     0.931200000000     0          
C11      C      0.741700000000     0.965000000000     0.948300000000     0          
C12      C      0.605000000000     0.867000000000     0.922100000000     0          
O7       O      0.558000000000     0.826000000000     0.926000000000     0          
O8       O      0.616000000000     0.883000000000     0.903600000000     0          
H1       H      0.945600000000     0.917400000000     0.986100000000     0          
H2       H      0.851100000000     0.953000000000     0.972800000000     0          
H3       H      0.656800000000     0.894900000000     0.988900000000     0          
H4       H      0.588800000000     0.848000000000     0.961600000000     0          
H5       H      0.709000000000     0.946000000000     0.917900000000     0          
H6       H      0.776900000000     0.993000000000     0.945200000000     0          
O10      O      0.500000000000     0.835000000000     0.894800000000     0          
C2       C      0.298000000000     0.718400000000     0.241900000000     0          
C4       C      0.278000000000     0.578400000000     0.233500000000     0          
C5       C      0.276000000000     0.510800000000     0.234700000000     0          
C6       C      0.300000000000     0.475400000000     0.220500000000     0          
C7       C      0.346000000000     0.416600000000     0.225600000000     0          
C8       C      0.375000000000     0.374000000000     0.208500000000     0          
C9       C      0.359000000000     0.390400000000     0.186300000000     0          
C10      C      0.314000000000     0.449200000000     0.181200000000     0          
C11      C      0.285000000000     0.491700000000     0.198300000000     0          
C12      C      0.383000000000     0.355000000000     0.172100000000     0          
O7       O      0.424000000000     0.308000000000     0.176000000000     0          
O8       O      0.367000000000     0.366000000000     0.153600000000     0          
H1       H      0.332600000000     0.695600000000     0.236100000000     0          
H2       H      0.297000000000     0.601100000000     0.222800000000     0          
H3       H      0.355100000000     0.406800000000     0.238900000000     0          
H4       H      0.402000000000     0.338800000000     0.211600000000     0          
H5       H      0.304000000000     0.459000000000     0.167900000000     0          
H6       H      0.257000000000     0.526900000000     0.195200000000     0          
O9       O      0.500000000000     0.337000000000     0.145900000000     0          
C2       C      0.468400000000     0.048000000000     0.491900000000     0          
C4       C      0.328400000000     0.028000000000     0.483500000000     0          
C5       C      0.260800000000     0.026000000000     0.484700000000     0          
C6       C      0.225400000000     0.050000000000     0.470500000000     0          
C7       C      0.166600000000     0.096000000000     0.475600000000     0          
C8       C      0.124000000000     0.125000000000     0.458500000000     0          
C9       C      0.140400000000     0.109000000000     0.436300000000     0          
C10      C      0.199200000000     0.064000000000     0.431200000000     0          
C11      C      0.241700000000     0.035000000000     0.448300000000     0          
C12      C      0.105000000000     0.133000000000     0.422100000000     0          
O7       O      0.058000000000     0.174000000000     0.426000000000     0          
O8       O      0.116000000000     0.117000000000     0.403600000000     0          
H1       H      0.445600000000     0.082600000000     0.486100000000     0          
H2       H      0.351100000000     0.047000000000     0.472800000000     0          
H3       H      0.156800000000     0.105100000000     0.488900000000     0          
H4       H      0.088800000000     0.152000000000     0.461600000000     0          
H5       H      0.209000000000     0.054000000000     0.417900000000     0          
H6       H      0.276900000000     0.007000000000     0.445200000000     0          
C1       C      0.436700000000     0.000000000000     0.500000000000     0          
C3       C      0.363500000000     0.000000000000     0.500000000000     0          
N1       N      0.228000000000     0.000000000000     0.500000000000     0          
C2       C      0.702000000000     0.718400000000     0.241900000000     0          
C4       C      0.722000000000     0.578400000000     0.233500000000     0          
C5       C      0.724000000000     0.510800000000     0.234700000000     0          
C6       C      0.700000000000     0.475400000000     0.220500000000     0          
C7       C      0.654000000000     0.416600000000     0.225600000000     0          
C8       C      0.625000000000     0.374000000000     0.208500000000     0          
C9       C      0.641000000000     0.390400000000     0.186300000000     0          
C10      C      0.686000000000     0.449200000000     0.181200000000     0          
C11      C      0.715000000000     0.491700000000     0.198300000000     0          
C12      C      0.617000000000     0.355000000000     0.172100000000     0          
O7       O      0.576000000000     0.308000000000     0.176000000000     0          
O8       O      0.633000000000     0.366000000000     0.153600000000     0          
H1       H      0.667400000000     0.695600000000     0.236100000000     0          
H2       H      0.703000000000     0.601100000000     0.222800000000     0          
H3       H      0.644900000000     0.406800000000     0.238900000000     0          
H4       H      0.598000000000     0.338800000000     0.211600000000     0          
H5       H      0.696000000000     0.459000000000     0.167900000000     0          
H6       H      0.743000000000     0.526900000000     0.195200000000     0          
C1       C      0.750000000000     0.686700000000     0.250000000000     0          
C3       C      0.750000000000     0.613500000000     0.250000000000     0          
N1       N      0.750000000000     0.478000000000     0.250000000000     0          
C2       C      0.031600000000     0.952000000000     0.991900000000     0          
C4       C      0.171600000000     0.972000000000     0.983500000000     0          
C5       C      0.239200000000     0.974000000000     0.984700000000     0          
C6       C      0.274600000000     0.950000000000     0.970500000000     0          
C7       C      0.333400000000     0.904000000000     0.975600000000     0          
C8       C      0.376000000000     0.875000000000     0.958500000000     0          
C9       C      0.359600000000     0.891000000000     0.936300000000     0          
C10      C      0.300800000000     0.936000000000     0.931200000000     0          
C11      C      0.258300000000     0.965000000000     0.948300000000     0          
C12      C      0.395000000000     0.867000000000     0.922100000000     0          
O7       O      0.442000000000     0.826000000000     0.926000000000     0          
O8       O      0.384000000000     0.883000000000     0.903600000000     0          
H1       H      0.054400000000     0.917400000000     0.986100000000     0          
H2       H      0.148900000000     0.953000000000     0.972800000000     0          
H3       H      0.343200000000     0.894900000000     0.988900000000     0          
H4       H      0.411200000000     0.848000000000     0.961600000000     0          
H5       H      0.291000000000     0.946000000000     0.917900000000     0          
H6       H      0.223100000000     0.993000000000     0.945200000000     0          
C1       C      0.063300000000     0.000000000000     0.000000000000     0          
C3       C      0.136500000000     0.000000000000     0.000000000000     0          
N1       N      0.272000000000     0.000000000000     0.000000000000     0          
C2       C      0.798000000000     0.281600000000     0.741900000000     0          
C4       C      0.778000000000     0.421600000000     0.733500000000     0          
C5       C      0.776000000000     0.489200000000     0.734700000000     0          
C6       C      0.800000000000     0.524600000000     0.720500000000     0          
C7       C      0.846000000000     0.583400000000     0.725600000000     0          
C8       C      0.875000000000     0.626000000000     0.708500000000     0          
C9       C      0.859000000000     0.609600000000     0.686300000000     0          
C10      C      0.814000000000     0.550800000000     0.681200000000     0          
C11      C      0.785000000000     0.508300000000     0.698300000000     0          
C12      C      0.883000000000     0.645000000000     0.672100000000     0          
O7       O      0.924000000000     0.692000000000     0.676000000000     0          
O8       O      0.867000000000     0.634000000000     0.653600000000     0          
H1       H      0.832600000000     0.304400000000     0.736100000000     0          
H2       H      0.797000000000     0.398900000000     0.722800000000     0          
H3       H      0.855100000000     0.593200000000     0.738900000000     0          
H4       H      0.902000000000     0.661200000000     0.711600000000     0          
H5       H      0.804000000000     0.541000000000     0.667900000000     0          
H6       H      0.757000000000     0.473100000000     0.695200000000     0          
C1       C      0.750000000000     0.313300000000     0.750000000000     0          
C3       C      0.750000000000     0.386500000000     0.750000000000     0          
N1       N      0.750000000000     0.522000000000     0.750000000000     0          
C2       C      0.468400000000     0.952000000000     0.508100000000     0          
C4       C      0.328400000000     0.972000000000     0.516500000000     0          
C5       C      0.260800000000     0.974000000000     0.515300000000     0          
C6       C      0.225400000000     0.950000000000     0.529500000000     0          
C7       C      0.166600000000     0.904000000000     0.524400000000     0          
C8       C      0.124000000000     0.875000000000     0.541500000000     0          
C9       C      0.140400000000     0.891000000000     0.563700000000     0          
C10      C      0.199200000000     0.936000000000     0.568800000000     0          
C11      C      0.241700000000     0.965000000000     0.551700000000     0          
C12      C      0.105000000000     0.867000000000     0.577900000000     0          
O7       O      0.058000000000     0.826000000000     0.574000000000     0          
O8       O      0.116000000000     0.883000000000     0.596400000000     0          
H1       H      0.445600000000     0.917400000000     0.513900000000     0          
H2       H      0.351100000000     0.953000000000     0.527200000000     0          
H3       H      0.156800000000     0.894900000000     0.511100000000     0          
H4       H      0.088800000000     0.848000000000     0.538400000000     0          
H5       H      0.209000000000     0.946000000000     0.582100000000     0          
H6       H      0.276900000000     0.993000000000     0.554800000000     0          
C2       C      0.798000000000     0.718400000000     0.258100000000     0          
C4       C      0.778000000000     0.578400000000     0.266500000000     0          
C5       C      0.776000000000     0.510800000000     0.265300000000     0          
C6       C      0.800000000000     0.475400000000     0.279500000000     0          
C7       C      0.846000000000     0.416600000000     0.274400000000     0          
C8       C      0.875000000000     0.374000000000     0.291500000000     0          
C9       C      0.859000000000     0.390400000000     0.313700000000     0          
C10      C      0.814000000000     0.449200000000     0.318800000000     0          
C11      C      0.785000000000     0.491700000000     0.301700000000     0          
C12      C      0.883000000000     0.355000000000     0.327900000000     0          
O7       O      0.924000000000     0.308000000000     0.324000000000     0          
O8       O      0.867000000000     0.366000000000     0.346400000000     0          
H1       H      0.832600000000     0.695600000000     0.263900000000     0          
H2       H      0.797000000000     0.601100000000     0.277200000000     0          
H3       H      0.855100000000     0.406800000000     0.261100000000     0          
H4       H      0.902000000000     0.338800000000     0.288400000000     0          
H5       H      0.804000000000     0.459000000000     0.332100000000     0          
H6       H      0.757000000000     0.526900000000     0.304800000000     0          
C2       C      0.031600000000     0.048000000000     0.008100000000     0          
C4       C      0.171600000000     0.028000000000     0.016500000000     0          
C5       C      0.239200000000     0.026000000000     0.015300000000     0          
C6       C      0.274600000000     0.050000000000     0.029500000000     0          
C7       C      0.333400000000     0.096000000000     0.024400000000     0          
C8       C      0.376000000000     0.125000000000     0.041500000000     0          
C9       C      0.359600000000     0.109000000000     0.063700000000     0          
C10      C      0.300800000000     0.064000000000     0.068800000000     0          
C11      C      0.258300000000     0.035000000000     0.051700000000     0          
C12      C      0.395000000000     0.133000000000     0.077900000000     0          
O7       O      0.442000000000     0.174000000000     0.074000000000     0          
O8       O      0.384000000000     0.117000000000     0.096400000000     0          
H1       H      0.054400000000     0.082600000000     0.013900000000     0          
H2       H      0.148900000000     0.047000000000     0.027200000000     0          
H3       H      0.343200000000     0.105100000000     0.011100000000     0          
H4       H      0.411200000000     0.152000000000     0.038400000000     0          
H5       H      0.291000000000     0.054000000000     0.082100000000     0          
H6       H      0.223100000000     0.007000000000     0.054800000000     0          
C2       C      0.702000000000     0.281600000000     0.758100000000     0          
C4       C      0.722000000000     0.421600000000     0.766500000000     0          
C5       C      0.724000000000     0.489200000000     0.765300000000     0          
C6       C      0.700000000000     0.524600000000     0.779500000000     0          
C7       C      0.654000000000     0.583400000000     0.774400000000     0          
C8       C      0.625000000000     0.626000000000     0.791500000000     0          
C9       C      0.641000000000     0.609600000000     0.813700000000     0          
C10      C      0.686000000000     0.550800000000     0.818800000000     0          
C11      C      0.715000000000     0.508300000000     0.801700000000     0          
C12      C      0.617000000000     0.645000000000     0.827900000000     0          
O7       O      0.576000000000     0.692000000000     0.824000000000     0          
O8       O      0.633000000000     0.634000000000     0.846400000000     0          
H1       H      0.667400000000     0.304400000000     0.763900000000     0          
H2       H      0.703000000000     0.398900000000     0.777200000000     0          
H3       H      0.644900000000     0.593200000000     0.761100000000     0          
H4       H      0.598000000000     0.661200000000     0.788400000000     0          
H5       H      0.696000000000     0.541000000000     0.832100000000     0          
H6       H      0.743000000000     0.473100000000     0.804800000000     0          


