data_VIYRIH

_audit_creation_method RASPA-1.0
_audit_creation_date 2020-11-2
_audit_author_name 'Rocio Bueno-Perez'

_cell_length_a    40.5746
_cell_length_b    40.5746
_cell_length_c    17.0198
_cell_angle_alpha 90
_cell_angle_beta  90
_cell_angle_gamma 90
_cell_volume      28019.7

_symmetry_cell_setting          triclinic
_symmetry_space_group_name_Hall 'P 1'
_symmetry_space_group_name_H-M  'P 1'
_symmetry_Int_Tables_number     1

_symmetry_equiv_pos_as_xyz 'x,y,z'

loop_
_atom_site_label
_atom_site_type_symbol
_atom_site_fract_x
_atom_site_fract_y
_atom_site_fract_z
_atom_site_charge
Zr1      Zr     0.729250000000     0.293080000000     0.840910000000     0          
O2       O      0.678340000000     0.310600000000     0.826400000000     0          
O3       O      0.656390000000     0.283300000000     0.723800000000     0          
O4       O      0.723800000000     0.292500000000     0.715200000000     0          
O5       O      0.526500000000     0.454270000000     0.302200000000     0          
O6       O      0.529000000000     0.385500000000     0.915000000000     0          
O7       O      0.733000000000     0.345600000000     0.820800000000     0          
C8       C      0.623100000000     0.319200000000     0.796300000000     0          
C9       C      0.595900000000     0.313000000000     0.749500000000     0          
H10      H      0.597700000000     0.298230000000     0.707920000000     0          
C11      C      0.565900000000     0.328500000000     0.763900000000     0          
H12      H      0.547910000000     0.323780000000     0.731960000000     0          
C13      C      0.655000000000     0.303800000000     0.780800000000     0          
C14      C      0.562200000000     0.351100000000     0.825300000000     0          
C15      C      0.619600000000     0.340900000000     0.856200000000     0          
H16      H      0.637550000000     0.344780000000     0.889010000000     0          
C17      C      0.528400000000     0.426000000000     0.152100000000     0          
H18      H      0.548300000000     0.429540000000     0.177790000000     0          
C19      C      0.590400000000     0.357500000000     0.870300000000     0          
H20      H      0.589520000000     0.373090000000     0.910230000000     0          
C21      C      0.529200000000     0.413000000000     0.077400000000     0          
H22      H      0.548880000000     0.410460000000     0.050210000000     0          
B23      B      0.529200000000     0.369300000000     0.841400000000     0          
O24      O      0.757300000000     0.316300000000     0.937800000000     0          
O25      O      0.816700000000     0.281000000000     0.917600000000     0          
C26      C      0.793800000000     0.313100000000     0.955000000000     0          
C27      C      0.842300000000     0.269000000000     0.963600000000     0          
O28      O      0.535200000000     0.405300000000     0.777600000000     0          
Zr29     Zr     0.229250000000     0.793080000000     0.340910000000     0          
O30      O      0.178340000000     0.810600000000     0.326400000000     0          
O31      O      0.156390000000     0.783300000000     0.223800000000     0          
O32      O      0.223800000000     0.792500000000     0.215200000000     0          
O33      O      0.026500000000     0.954270000000     0.802200000000     0          
O34      O      0.029000000000     0.885500000000     0.415000000000     0          
O35      O      0.233000000000     0.845600000000     0.320800000000     0          
C36      C      0.123100000000     0.819200000000     0.296300000000     0          
C37      C      0.095900000000     0.813000000000     0.249500000000     0          
H38      H      0.097700000000     0.798230000000     0.207920000000     0          
C39      C      0.065900000000     0.828500000000     0.263900000000     0          
H40      H      0.047910000000     0.823780000000     0.231960000000     0          
C41      C      0.155000000000     0.803800000000     0.280800000000     0          
C42      C      0.062200000000     0.851100000000     0.325300000000     0          
C43      C      0.119600000000     0.840900000000     0.356200000000     0          
H44      H      0.137550000000     0.844780000000     0.389010000000     0          
C45      C      0.028400000000     0.926000000000     0.652100000000     0          
H46      H      0.048300000000     0.929540000000     0.677790000000     0          
C47      C      0.090400000000     0.857500000000     0.370300000000     0          
H48      H      0.089520000000     0.873090000000     0.410230000000     0          
C49      C      0.029200000000     0.913000000000     0.577400000000     0          
H50      H      0.048880000000     0.910460000000     0.550210000000     0          
B51      B      0.029200000000     0.869300000000     0.341400000000     0          
O52      O      0.257300000000     0.816300000000     0.437800000000     0          
O53      O      0.316700000000     0.781000000000     0.417600000000     0          
C54      C      0.293800000000     0.813100000000     0.455000000000     0          
C55      C      0.342300000000     0.769000000000     0.463600000000     0          
O56      O      0.035200000000     0.905300000000     0.277600000000     0          
Zr57     Zr     0.770750000000     0.706920000000     0.340910000000     0          
O58      O      0.821660000000     0.689400000000     0.326400000000     0          
O59      O      0.843610000000     0.716700000000     0.223800000000     0          
O60      O      0.776200000000     0.707500000000     0.215200000000     0          
O61      O      0.973500000000     0.545730000000     0.802200000000     0          
O62      O      0.971000000000     0.614500000000     0.415000000000     0          
O63      O      0.767000000000     0.654400000000     0.320800000000     0          
C64      C      0.876900000000     0.680800000000     0.296300000000     0          
C65      C      0.904100000000     0.687000000000     0.249500000000     0          
H66      H      0.902300000000     0.701770000000     0.207920000000     0          
C67      C      0.934100000000     0.671500000000     0.263900000000     0          
H68      H      0.952090000000     0.676220000000     0.231960000000     0          
C69      C      0.845000000000     0.696200000000     0.280800000000     0          
C70      C      0.937800000000     0.648900000000     0.325300000000     0          
C71      C      0.880400000000     0.659100000000     0.356200000000     0          
H72      H      0.862450000000     0.655220000000     0.389010000000     0          
C73      C      0.971600000000     0.574000000000     0.652100000000     0          
H74      H      0.951700000000     0.570460000000     0.677790000000     0          
C75      C      0.909600000000     0.642500000000     0.370300000000     0          
H76      H      0.910480000000     0.626910000000     0.410230000000     0          
C77      C      0.970800000000     0.587000000000     0.577400000000     0          
H78      H      0.951120000000     0.589540000000     0.550210000000     0          
B79      B      0.970800000000     0.630700000000     0.341400000000     0          
O80      O      0.742700000000     0.683700000000     0.437800000000     0          
O81      O      0.683300000000     0.719000000000     0.417600000000     0          
C82      C      0.706200000000     0.686900000000     0.455000000000     0          
C83      C      0.657700000000     0.731000000000     0.463600000000     0          
O84      O      0.964800000000     0.594700000000     0.277600000000     0          
Zr85     Zr     0.270750000000     0.206920000000     0.840910000000     0          
O86      O      0.321660000000     0.189400000000     0.826400000000     0          
O87      O      0.343610000000     0.216700000000     0.723800000000     0          
O88      O      0.276200000000     0.207500000000     0.715200000000     0          
O89      O      0.473500000000     0.045730000000     0.302200000000     0          
O90      O      0.471000000000     0.114500000000     0.915000000000     0          
O91      O      0.267000000000     0.154400000000     0.820800000000     0          
C92      C      0.376900000000     0.180800000000     0.796300000000     0          
C93      C      0.404100000000     0.187000000000     0.749500000000     0          
H94      H      0.402300000000     0.201770000000     0.707920000000     0          
C95      C      0.434100000000     0.171500000000     0.763900000000     0          
H96      H      0.452090000000     0.176220000000     0.731960000000     0          
C97      C      0.345000000000     0.196200000000     0.780800000000     0          
C98      C      0.437800000000     0.148900000000     0.825300000000     0          
C99      C      0.380400000000     0.159100000000     0.856200000000     0          
H100     H      0.362450000000     0.155220000000     0.889010000000     0          
C101     C      0.471600000000     0.074000000000     0.152100000000     0          
H102     H      0.451700000000     0.070460000000     0.177790000000     0          
C103     C      0.409600000000     0.142500000000     0.870300000000     0          
H104     H      0.410480000000     0.126910000000     0.910230000000     0          
C105     C      0.470800000000     0.087000000000     0.077400000000     0          
H106     H      0.451120000000     0.089540000000     0.050210000000     0          
B107     B      0.470800000000     0.130700000000     0.841400000000     0          
O108     O      0.242700000000     0.183700000000     0.937800000000     0          
O109     O      0.183300000000     0.219000000000     0.917600000000     0          
C110     C      0.206200000000     0.186900000000     0.955000000000     0          
C111     C      0.157700000000     0.231000000000     0.963600000000     0          
O112     O      0.464800000000     0.094700000000     0.777600000000     0          
Zr113    Zr     0.956920000000     0.479250000000     0.090910000000     0          
O114     O      0.939400000000     0.428340000000     0.076400000000     0          
O115     O      0.966700000000     0.406390000000     0.973800000000     0          
O116     O      0.957500000000     0.473800000000     0.965200000000     0          
O117     O      0.795730000000     0.276500000000     0.552200000000     0          
O118     O      0.864500000000     0.279000000000     0.165000000000     0          
O119     O      0.904400000000     0.483000000000     0.070800000000     0          
C120     C      0.930800000000     0.373100000000     0.046300000000     0          
C121     C      0.937000000000     0.345900000000     0.999500000000     0          
H122     H      0.951770000000     0.347700000000     0.957920000000     0          
C123     C      0.921500000000     0.315900000000     0.013900000000     0          
H124     H      0.926220000000     0.297910000000     0.981960000000     0          
C125     C      0.946200000000     0.405000000000     0.030800000000     0          
C126     C      0.898900000000     0.312200000000     0.075300000000     0          
C127     C      0.909100000000     0.369600000000     0.106200000000     0          
H128     H      0.905220000000     0.387550000000     0.139010000000     0          
C129     C      0.824000000000     0.278400000000     0.402100000000     0          
H130     H      0.820460000000     0.298300000000     0.427790000000     0          
C131     C      0.892500000000     0.340400000000     0.120300000000     0          
H132     H      0.876910000000     0.339520000000     0.160230000000     0          
C133     C      0.837000000000     0.279200000000     0.327400000000     0          
H134     H      0.839540000000     0.298880000000     0.300210000000     0          
B135     B      0.880700000000     0.279200000000     0.091400000000     0          
O136     O      0.933700000000     0.507300000000     0.187800000000     0          
O137     O      0.969000000000     0.566700000000     0.167600000000     0          
C138     C      0.936900000000     0.543800000000     0.205000000000     0          
C139     C      0.981000000000     0.592300000000     0.213600000000     0          
O140     O      0.844700000000     0.285200000000     0.027600000000     0          
Zr141    Zr     0.456920000000     0.979250000000     0.590910000000     0          
O142     O      0.439400000000     0.928340000000     0.576400000000     0          
O143     O      0.466700000000     0.906390000000     0.473800000000     0          
O144     O      0.457500000000     0.973800000000     0.465200000000     0          
O145     O      0.295730000000     0.776500000000     0.052200000000     0          
O146     O      0.364500000000     0.779000000000     0.665000000000     0          
O147     O      0.404400000000     0.983000000000     0.570800000000     0          
C148     C      0.430800000000     0.873100000000     0.546300000000     0          
C149     C      0.437000000000     0.845900000000     0.499500000000     0          
H150     H      0.451770000000     0.847700000000     0.457920000000     0          
C151     C      0.421500000000     0.815900000000     0.513900000000     0          
H152     H      0.426220000000     0.797910000000     0.481960000000     0          
C153     C      0.446200000000     0.905000000000     0.530800000000     0          
C154     C      0.398900000000     0.812200000000     0.575300000000     0          
C155     C      0.409100000000     0.869600000000     0.606200000000     0          
H156     H      0.405220000000     0.887550000000     0.639010000000     0          
C157     C      0.324000000000     0.778400000000     0.902100000000     0          
H158     H      0.320460000000     0.798300000000     0.927790000000     0          
C159     C      0.392500000000     0.840400000000     0.620300000000     0          
H160     H      0.376910000000     0.839520000000     0.660230000000     0          
C161     C      0.337000000000     0.779200000000     0.827400000000     0          
H162     H      0.339540000000     0.798880000000     0.800210000000     0          
B163     B      0.380700000000     0.779200000000     0.591400000000     0          
O164     O      0.433700000000     0.007300000000     0.687800000000     0          
O165     O      0.469000000000     0.066700000000     0.667600000000     0          
C166     C      0.436900000000     0.043800000000     0.705000000000     0          
C167     C      0.481000000000     0.092300000000     0.713600000000     0          
O168     O      0.344700000000     0.785200000000     0.527600000000     0          
Zr169    Zr     0.543080000000     0.520750000000     0.590910000000     0          
O170     O      0.560600000000     0.571660000000     0.576400000000     0          
O171     O      0.533300000000     0.593610000000     0.473800000000     0          
O172     O      0.542500000000     0.526200000000     0.465200000000     0          
O173     O      0.704270000000     0.723500000000     0.052200000000     0          
O174     O      0.635500000000     0.721000000000     0.665000000000     0          
O175     O      0.595600000000     0.517000000000     0.570800000000     0          
C176     C      0.569200000000     0.626900000000     0.546300000000     0          
C177     C      0.563000000000     0.654100000000     0.499500000000     0          
H178     H      0.548230000000     0.652300000000     0.457920000000     0          
C179     C      0.578500000000     0.684100000000     0.513900000000     0          
H180     H      0.573780000000     0.702090000000     0.481960000000     0          
C181     C      0.553800000000     0.595000000000     0.530800000000     0          
C182     C      0.601100000000     0.687800000000     0.575300000000     0          
C183     C      0.590900000000     0.630400000000     0.606200000000     0          
H184     H      0.594780000000     0.612450000000     0.639010000000     0          
C185     C      0.676000000000     0.721600000000     0.902100000000     0          
H186     H      0.679540000000     0.701700000000     0.927790000000     0          
C187     C      0.607500000000     0.659600000000     0.620300000000     0          
H188     H      0.623090000000     0.660480000000     0.660230000000     0          
C189     C      0.663000000000     0.720800000000     0.827400000000     0          
H190     H      0.660460000000     0.701120000000     0.800210000000     0          
B191     B      0.619300000000     0.720800000000     0.591400000000     0          
O192     O      0.566300000000     0.492700000000     0.687800000000     0          
O193     O      0.531000000000     0.433300000000     0.667600000000     0          
C194     C      0.563100000000     0.456200000000     0.705000000000     0          
C195     C      0.519000000000     0.407700000000     0.713600000000     0          
O196     O      0.655300000000     0.714800000000     0.527600000000     0          
Zr197    Zr     0.043080000000     0.020750000000     0.090910000000     0          
O198     O      0.060600000000     0.071660000000     0.076400000000     0          
O199     O      0.033300000000     0.093610000000     0.973800000000     0          
O200     O      0.042500000000     0.026200000000     0.965200000000     0          
O201     O      0.204270000000     0.223500000000     0.552200000000     0          
O202     O      0.135500000000     0.221000000000     0.165000000000     0          
O203     O      0.095600000000     0.017000000000     0.070800000000     0          
C204     C      0.069200000000     0.126900000000     0.046300000000     0          
C205     C      0.063000000000     0.154100000000     0.999500000000     0          
H206     H      0.048230000000     0.152300000000     0.957920000000     0          
C207     C      0.078500000000     0.184100000000     0.013900000000     0          
H208     H      0.073780000000     0.202090000000     0.981960000000     0          
C209     C      0.053800000000     0.095000000000     0.030800000000     0          
C210     C      0.101100000000     0.187800000000     0.075300000000     0          
C211     C      0.090900000000     0.130400000000     0.106200000000     0          
H212     H      0.094780000000     0.112450000000     0.139010000000     0          
C213     C      0.176000000000     0.221600000000     0.402100000000     0          
H214     H      0.179540000000     0.201700000000     0.427790000000     0          
C215     C      0.107500000000     0.159600000000     0.120300000000     0          
H216     H      0.123090000000     0.160480000000     0.160230000000     0          
C217     C      0.163000000000     0.220800000000     0.327400000000     0          
H218     H      0.160460000000     0.201120000000     0.300210000000     0          
B219     B      0.119300000000     0.220800000000     0.091400000000     0          
O220     O      0.066300000000     0.992700000000     0.187800000000     0          
O221     O      0.031000000000     0.933300000000     0.167600000000     0          
C222     C      0.063100000000     0.956200000000     0.205000000000     0          
C223     C      0.019000000000     0.907700000000     0.213600000000     0          
O224     O      0.155300000000     0.214800000000     0.027600000000     0          
Zr225    Zr     0.770750000000     0.293080000000     0.659090000000     0          
O226     O      0.821660000000     0.310600000000     0.673600000000     0          
O227     O      0.843610000000     0.283300000000     0.776200000000     0          
O228     O      0.776200000000     0.292500000000     0.784800000000     0          
O229     O      0.973500000000     0.454270000000     0.197800000000     0          
O230     O      0.971000000000     0.385500000000     0.585000000000     0          
O231     O      0.767000000000     0.345600000000     0.679200000000     0          
C232     C      0.876900000000     0.319200000000     0.703700000000     0          
C233     C      0.904100000000     0.313000000000     0.750500000000     0          
H234     H      0.902300000000     0.298230000000     0.792080000000     0          
C235     C      0.934100000000     0.328500000000     0.736100000000     0          
H236     H      0.952090000000     0.323780000000     0.768040000000     0          
C237     C      0.845000000000     0.303800000000     0.719200000000     0          
C238     C      0.937800000000     0.351100000000     0.674700000000     0          
C239     C      0.880400000000     0.340900000000     0.643800000000     0          
H240     H      0.862450000000     0.344780000000     0.610990000000     0          
C241     C      0.971600000000     0.426000000000     0.347900000000     0          
H242     H      0.951700000000     0.429540000000     0.322210000000     0          
C243     C      0.909600000000     0.357500000000     0.629700000000     0          
H244     H      0.910480000000     0.373090000000     0.589770000000     0          
C245     C      0.970800000000     0.413000000000     0.422600000000     0          
H246     H      0.951120000000     0.410460000000     0.449790000000     0          
B247     B      0.970800000000     0.369300000000     0.658600000000     0          
O248     O      0.742700000000     0.316300000000     0.562200000000     0          
O249     O      0.683300000000     0.281000000000     0.582400000000     0          
C250     C      0.706200000000     0.313100000000     0.545000000000     0          
C251     C      0.657700000000     0.269000000000     0.536400000000     0          
O252     O      0.964800000000     0.405300000000     0.722400000000     0          
Zr253    Zr     0.270750000000     0.793080000000     0.159090000000     0          
O254     O      0.321660000000     0.810600000000     0.173600000000     0          
O255     O      0.343610000000     0.783300000000     0.276200000000     0          
O256     O      0.276200000000     0.792500000000     0.284800000000     0          
O257     O      0.473500000000     0.954270000000     0.697800000000     0          
O258     O      0.471000000000     0.885500000000     0.085000000000     0          
O259     O      0.267000000000     0.845600000000     0.179200000000     0          
C260     C      0.376900000000     0.819200000000     0.203700000000     0          
C261     C      0.404100000000     0.813000000000     0.250500000000     0          
H262     H      0.402300000000     0.798230000000     0.292080000000     0          
C263     C      0.434100000000     0.828500000000     0.236100000000     0          
H264     H      0.452090000000     0.823780000000     0.268040000000     0          
C265     C      0.345000000000     0.803800000000     0.219200000000     0          
C266     C      0.437800000000     0.851100000000     0.174700000000     0          
C267     C      0.380400000000     0.840900000000     0.143800000000     0          
H268     H      0.362450000000     0.844780000000     0.110990000000     0          
C269     C      0.471600000000     0.926000000000     0.847900000000     0          
H270     H      0.451700000000     0.929540000000     0.822210000000     0          
C271     C      0.409600000000     0.857500000000     0.129700000000     0          
H272     H      0.410480000000     0.873090000000     0.089770000000     0          
C273     C      0.470800000000     0.913000000000     0.922600000000     0          
H274     H      0.451120000000     0.910460000000     0.949790000000     0          
B275     B      0.470800000000     0.869300000000     0.158600000000     0          
O276     O      0.242700000000     0.816300000000     0.062200000000     0          
O277     O      0.183300000000     0.781000000000     0.082400000000     0          
C278     C      0.206200000000     0.813100000000     0.045000000000     0          
C279     C      0.157700000000     0.769000000000     0.036400000000     0          
O280     O      0.464800000000     0.905300000000     0.222400000000     0          
Zr281    Zr     0.729250000000     0.706920000000     0.159090000000     0          
O282     O      0.678340000000     0.689400000000     0.173600000000     0          
O283     O      0.656390000000     0.716700000000     0.276200000000     0          
O284     O      0.723800000000     0.707500000000     0.284800000000     0          
O285     O      0.526500000000     0.545730000000     0.697800000000     0          
O286     O      0.529000000000     0.614500000000     0.085000000000     0          
O287     O      0.733000000000     0.654400000000     0.179200000000     0          
C288     C      0.623100000000     0.680800000000     0.203700000000     0          
C289     C      0.595900000000     0.687000000000     0.250500000000     0          
H290     H      0.597700000000     0.701770000000     0.292080000000     0          
C291     C      0.565900000000     0.671500000000     0.236100000000     0          
H292     H      0.547910000000     0.676220000000     0.268040000000     0          
C293     C      0.655000000000     0.696200000000     0.219200000000     0          
C294     C      0.562200000000     0.648900000000     0.174700000000     0          
C295     C      0.619600000000     0.659100000000     0.143800000000     0          
H296     H      0.637550000000     0.655220000000     0.110990000000     0          
C297     C      0.528400000000     0.574000000000     0.847900000000     0          
H298     H      0.548300000000     0.570460000000     0.822210000000     0          
C299     C      0.590400000000     0.642500000000     0.129700000000     0          
H300     H      0.589520000000     0.626910000000     0.089770000000     0          
C301     C      0.529200000000     0.587000000000     0.922600000000     0          
H302     H      0.548880000000     0.589540000000     0.949790000000     0          
B303     B      0.529200000000     0.630700000000     0.158600000000     0          
O304     O      0.757300000000     0.683700000000     0.062200000000     0          
O305     O      0.816700000000     0.719000000000     0.082400000000     0          
C306     C      0.793800000000     0.686900000000     0.045000000000     0          
C307     C      0.842300000000     0.731000000000     0.036400000000     0          
O308     O      0.535200000000     0.594700000000     0.222400000000     0          
Zr309    Zr     0.229250000000     0.206920000000     0.659090000000     0          
O310     O      0.178340000000     0.189400000000     0.673600000000     0          
O311     O      0.156390000000     0.216700000000     0.776200000000     0          
O312     O      0.223800000000     0.207500000000     0.784800000000     0          
O313     O      0.026500000000     0.045730000000     0.197800000000     0          
O314     O      0.029000000000     0.114500000000     0.585000000000     0          
O315     O      0.233000000000     0.154400000000     0.679200000000     0          
C316     C      0.123100000000     0.180800000000     0.703700000000     0          
C317     C      0.095900000000     0.187000000000     0.750500000000     0          
H318     H      0.097700000000     0.201770000000     0.792080000000     0          
C319     C      0.065900000000     0.171500000000     0.736100000000     0          
H320     H      0.047910000000     0.176220000000     0.768040000000     0          
C321     C      0.155000000000     0.196200000000     0.719200000000     0          
C322     C      0.062200000000     0.148900000000     0.674700000000     0          
C323     C      0.119600000000     0.159100000000     0.643800000000     0          
H324     H      0.137550000000     0.155220000000     0.610990000000     0          
C325     C      0.028400000000     0.074000000000     0.347900000000     0          
H326     H      0.048300000000     0.070460000000     0.322210000000     0          
C327     C      0.090400000000     0.142500000000     0.629700000000     0          
H328     H      0.089520000000     0.126910000000     0.589770000000     0          
C329     C      0.029200000000     0.087000000000     0.422600000000     0          
H330     H      0.048880000000     0.089540000000     0.449790000000     0          
B331     B      0.029200000000     0.130700000000     0.658600000000     0          
O332     O      0.257300000000     0.183700000000     0.562200000000     0          
O333     O      0.316700000000     0.219000000000     0.582400000000     0          
C334     C      0.293800000000     0.186900000000     0.545000000000     0          
C335     C      0.342300000000     0.231000000000     0.536400000000     0          
O336     O      0.035200000000     0.094700000000     0.722400000000     0          
Zr337    Zr     0.543080000000     0.479250000000     0.409090000000     0          
O338     O      0.560600000000     0.428340000000     0.423600000000     0          
O339     O      0.533300000000     0.406390000000     0.526200000000     0          
O340     O      0.542500000000     0.473800000000     0.534800000000     0          
O341     O      0.704270000000     0.276500000000     0.947800000000     0          
O342     O      0.635500000000     0.279000000000     0.335000000000     0          
O343     O      0.595600000000     0.483000000000     0.429200000000     0          
C344     C      0.569200000000     0.373100000000     0.453700000000     0          
C345     C      0.563000000000     0.345900000000     0.500500000000     0          
H346     H      0.548230000000     0.347700000000     0.542080000000     0          
C347     C      0.578500000000     0.315900000000     0.486100000000     0          
H348     H      0.573780000000     0.297910000000     0.518040000000     0          
C349     C      0.553800000000     0.405000000000     0.469200000000     0          
C350     C      0.601100000000     0.312200000000     0.424700000000     0          
C351     C      0.590900000000     0.369600000000     0.393800000000     0          
H352     H      0.594780000000     0.387550000000     0.360990000000     0          
C353     C      0.676000000000     0.278400000000     0.097900000000     0          
H354     H      0.679540000000     0.298300000000     0.072210000000     0          
C355     C      0.607500000000     0.340400000000     0.379700000000     0          
H356     H      0.623090000000     0.339520000000     0.339770000000     0          
C357     C      0.663000000000     0.279200000000     0.172600000000     0          
H358     H      0.660460000000     0.298880000000     0.199790000000     0          
B359     B      0.619300000000     0.279200000000     0.408600000000     0          
O360     O      0.566300000000     0.507300000000     0.312200000000     0          
O361     O      0.531000000000     0.566700000000     0.332400000000     0          
C362     C      0.563100000000     0.543800000000     0.295000000000     0          
C363     C      0.519000000000     0.592300000000     0.286400000000     0          
O364     O      0.655300000000     0.285200000000     0.472400000000     0          
Zr365    Zr     0.043080000000     0.979250000000     0.909090000000     0          
O366     O      0.060600000000     0.928340000000     0.923600000000     0          
O367     O      0.033300000000     0.906390000000     0.026200000000     0          
O368     O      0.042500000000     0.973800000000     0.034800000000     0          
O369     O      0.204270000000     0.776500000000     0.447800000000     0          
O370     O      0.135500000000     0.779000000000     0.835000000000     0          
O371     O      0.095600000000     0.983000000000     0.929200000000     0          
C372     C      0.069200000000     0.873100000000     0.953700000000     0          
C373     C      0.063000000000     0.845900000000     0.000500000000     0          
H374     H      0.048230000000     0.847700000000     0.042080000000     0          
C375     C      0.078500000000     0.815900000000     0.986100000000     0          
H376     H      0.073780000000     0.797910000000     0.018040000000     0          
C377     C      0.053800000000     0.905000000000     0.969200000000     0          
C378     C      0.101100000000     0.812200000000     0.924700000000     0          
C379     C      0.090900000000     0.869600000000     0.893800000000     0          
H380     H      0.094780000000     0.887550000000     0.860990000000     0          
C381     C      0.176000000000     0.778400000000     0.597900000000     0          
H382     H      0.179540000000     0.798300000000     0.572210000000     0          
C383     C      0.107500000000     0.840400000000     0.879700000000     0          
H384     H      0.123090000000     0.839520000000     0.839770000000     0          
C385     C      0.163000000000     0.779200000000     0.672600000000     0          
H386     H      0.160460000000     0.798880000000     0.699790000000     0          
B387     B      0.119300000000     0.779200000000     0.908600000000     0          
O388     O      0.066300000000     0.007300000000     0.812200000000     0          
O389     O      0.031000000000     0.066700000000     0.832400000000     0          
C390     C      0.063100000000     0.043800000000     0.795000000000     0          
C391     C      0.019000000000     0.092300000000     0.786400000000     0          
O392     O      0.155300000000     0.785200000000     0.972400000000     0          
Zr393    Zr     0.956920000000     0.520750000000     0.909090000000     0          
O394     O      0.939400000000     0.571660000000     0.923600000000     0          
O395     O      0.966700000000     0.593610000000     0.026200000000     0          
O396     O      0.957500000000     0.526200000000     0.034800000000     0          
O397     O      0.795730000000     0.723500000000     0.447800000000     0          
O398     O      0.864500000000     0.721000000000     0.835000000000     0          
O399     O      0.904400000000     0.517000000000     0.929200000000     0          
C400     C      0.930800000000     0.626900000000     0.953700000000     0          
C401     C      0.937000000000     0.654100000000     0.000500000000     0          
H402     H      0.951770000000     0.652300000000     0.042080000000     0          
C403     C      0.921500000000     0.684100000000     0.986100000000     0          
H404     H      0.926220000000     0.702090000000     0.018040000000     0          
C405     C      0.946200000000     0.595000000000     0.969200000000     0          
C406     C      0.898900000000     0.687800000000     0.924700000000     0          
C407     C      0.909100000000     0.630400000000     0.893800000000     0          
H408     H      0.905220000000     0.612450000000     0.860990000000     0          
C409     C      0.824000000000     0.721600000000     0.597900000000     0          
H410     H      0.820460000000     0.701700000000     0.572210000000     0          
C411     C      0.892500000000     0.659600000000     0.879700000000     0          
H412     H      0.876910000000     0.660480000000     0.839770000000     0          
C413     C      0.837000000000     0.720800000000     0.672600000000     0          
H414     H      0.839540000000     0.701120000000     0.699790000000     0          
B415     B      0.880700000000     0.720800000000     0.908600000000     0          
O416     O      0.933700000000     0.492700000000     0.812200000000     0          
O417     O      0.969000000000     0.433300000000     0.832400000000     0          
C418     C      0.936900000000     0.456200000000     0.795000000000     0          
C419     C      0.981000000000     0.407700000000     0.786400000000     0          
O420     O      0.844700000000     0.714800000000     0.972400000000     0          
Zr421    Zr     0.456920000000     0.020750000000     0.409090000000     0          
O422     O      0.439400000000     0.071660000000     0.423600000000     0          
O423     O      0.466700000000     0.093610000000     0.526200000000     0          
O424     O      0.457500000000     0.026200000000     0.534800000000     0          
O425     O      0.295730000000     0.223500000000     0.947800000000     0          
O426     O      0.364500000000     0.221000000000     0.335000000000     0          
O427     O      0.404400000000     0.017000000000     0.429200000000     0          
C428     C      0.430800000000     0.126900000000     0.453700000000     0          
C429     C      0.437000000000     0.154100000000     0.500500000000     0          
H430     H      0.451770000000     0.152300000000     0.542080000000     0          
C431     C      0.421500000000     0.184100000000     0.486100000000     0          
H432     H      0.426220000000     0.202090000000     0.518040000000     0          
C433     C      0.446200000000     0.095000000000     0.469200000000     0          
C434     C      0.398900000000     0.187800000000     0.424700000000     0          
C435     C      0.409100000000     0.130400000000     0.393800000000     0          
H436     H      0.405220000000     0.112450000000     0.360990000000     0          
C437     C      0.324000000000     0.221600000000     0.097900000000     0          
H438     H      0.320460000000     0.201700000000     0.072210000000     0          
C439     C      0.392500000000     0.159600000000     0.379700000000     0          
H440     H      0.376910000000     0.160480000000     0.339770000000     0          
C441     C      0.337000000000     0.220800000000     0.172600000000     0          
H442     H      0.339540000000     0.201120000000     0.199790000000     0          
B443     B      0.380700000000     0.220800000000     0.408600000000     0          
O444     O      0.433700000000     0.992700000000     0.312200000000     0          
O445     O      0.469000000000     0.933300000000     0.332400000000     0          
C446     C      0.436900000000     0.956200000000     0.295000000000     0          
C447     C      0.481000000000     0.907700000000     0.286400000000     0          
O448     O      0.344700000000     0.214800000000     0.472400000000     0          
Zr449    Zr     0.270750000000     0.706920000000     0.159090000000     0          
O450     O      0.321660000000     0.689400000000     0.173600000000     0          
O451     O      0.343610000000     0.716700000000     0.276200000000     0          
O452     O      0.276200000000     0.707500000000     0.284800000000     0          
O453     O      0.473500000000     0.545730000000     0.697800000000     0          
O454     O      0.471000000000     0.614500000000     0.085000000000     0          
O455     O      0.267000000000     0.654400000000     0.179200000000     0          
C456     C      0.376900000000     0.680800000000     0.203700000000     0          
C457     C      0.404100000000     0.687000000000     0.250500000000     0          
H458     H      0.402300000000     0.701770000000     0.292080000000     0          
C459     C      0.434100000000     0.671500000000     0.236100000000     0          
H460     H      0.452090000000     0.676220000000     0.268040000000     0          
C461     C      0.345000000000     0.696200000000     0.219200000000     0          
C462     C      0.437800000000     0.648900000000     0.174700000000     0          
C463     C      0.380400000000     0.659100000000     0.143800000000     0          
H464     H      0.362450000000     0.655220000000     0.110990000000     0          
C465     C      0.471600000000     0.574000000000     0.847900000000     0          
H466     H      0.451700000000     0.570460000000     0.822210000000     0          
C467     C      0.409600000000     0.642500000000     0.129700000000     0          
H468     H      0.410480000000     0.626910000000     0.089770000000     0          
C469     C      0.470800000000     0.587000000000     0.922600000000     0          
H470     H      0.451120000000     0.589540000000     0.949790000000     0          
B471     B      0.470800000000     0.630700000000     0.158600000000     0          
O472     O      0.242700000000     0.683700000000     0.062200000000     0          
O473     O      0.183300000000     0.719000000000     0.082400000000     0          
C474     C      0.206200000000     0.686900000000     0.045000000000     0          
C475     C      0.157700000000     0.731000000000     0.036400000000     0          
O476     O      0.464800000000     0.594700000000     0.222400000000     0          
Zr477    Zr     0.770750000000     0.206920000000     0.659090000000     0          
O478     O      0.821660000000     0.189400000000     0.673600000000     0          
O479     O      0.843610000000     0.216700000000     0.776200000000     0          
O480     O      0.776200000000     0.207500000000     0.784800000000     0          
O481     O      0.973500000000     0.045730000000     0.197800000000     0          
O482     O      0.971000000000     0.114500000000     0.585000000000     0          
O483     O      0.767000000000     0.154400000000     0.679200000000     0          
C484     C      0.876900000000     0.180800000000     0.703700000000     0          
C485     C      0.904100000000     0.187000000000     0.750500000000     0          
H486     H      0.902300000000     0.201770000000     0.792080000000     0          
C487     C      0.934100000000     0.171500000000     0.736100000000     0          
H488     H      0.952090000000     0.176220000000     0.768040000000     0          
C489     C      0.845000000000     0.196200000000     0.719200000000     0          
C490     C      0.937800000000     0.148900000000     0.674700000000     0          
C491     C      0.880400000000     0.159100000000     0.643800000000     0          
H492     H      0.862450000000     0.155220000000     0.610990000000     0          
C493     C      0.971600000000     0.074000000000     0.347900000000     0          
H494     H      0.951700000000     0.070460000000     0.322210000000     0          
C495     C      0.909600000000     0.142500000000     0.629700000000     0          
H496     H      0.910480000000     0.126910000000     0.589770000000     0          
C497     C      0.970800000000     0.087000000000     0.422600000000     0          
H498     H      0.951120000000     0.089540000000     0.449790000000     0          
B499     B      0.970800000000     0.130700000000     0.658600000000     0          
O500     O      0.742700000000     0.183700000000     0.562200000000     0          
O501     O      0.683300000000     0.219000000000     0.582400000000     0          
C502     C      0.706200000000     0.186900000000     0.545000000000     0          
C503     C      0.657700000000     0.231000000000     0.536400000000     0          
O504     O      0.964800000000     0.094700000000     0.722400000000     0          
Zr505    Zr     0.229250000000     0.293080000000     0.659090000000     0          
O506     O      0.178340000000     0.310600000000     0.673600000000     0          
O507     O      0.156390000000     0.283300000000     0.776200000000     0          
O508     O      0.223800000000     0.292500000000     0.784800000000     0          
O509     O      0.026500000000     0.454270000000     0.197800000000     0          
O510     O      0.029000000000     0.385500000000     0.585000000000     0          
O511     O      0.233000000000     0.345600000000     0.679200000000     0          
C512     C      0.123100000000     0.319200000000     0.703700000000     0          
C513     C      0.095900000000     0.313000000000     0.750500000000     0          
H514     H      0.097700000000     0.298230000000     0.792080000000     0          
C515     C      0.065900000000     0.328500000000     0.736100000000     0          
H516     H      0.047910000000     0.323780000000     0.768040000000     0          
C517     C      0.155000000000     0.303800000000     0.719200000000     0          
C518     C      0.062200000000     0.351100000000     0.674700000000     0          
C519     C      0.119600000000     0.340900000000     0.643800000000     0          
H520     H      0.137550000000     0.344780000000     0.610990000000     0          
C521     C      0.028400000000     0.426000000000     0.347900000000     0          
H522     H      0.048300000000     0.429540000000     0.322210000000     0          
C523     C      0.090400000000     0.357500000000     0.629700000000     0          
H524     H      0.089520000000     0.373090000000     0.589770000000     0          
C525     C      0.029200000000     0.413000000000     0.422600000000     0          
H526     H      0.048880000000     0.410460000000     0.449790000000     0          
B527     B      0.029200000000     0.369300000000     0.658600000000     0          
O528     O      0.257300000000     0.316300000000     0.562200000000     0          
O529     O      0.316700000000     0.281000000000     0.582400000000     0          
C530     C      0.293800000000     0.313100000000     0.545000000000     0          
C531     C      0.342300000000     0.269000000000     0.536400000000     0          
O532     O      0.035200000000     0.405300000000     0.722400000000     0          
Zr533    Zr     0.729250000000     0.793080000000     0.159090000000     0          
O534     O      0.678340000000     0.810600000000     0.173600000000     0          
O535     O      0.656390000000     0.783300000000     0.276200000000     0          
O536     O      0.723800000000     0.792500000000     0.284800000000     0          
O537     O      0.526500000000     0.954270000000     0.697800000000     0          
O538     O      0.529000000000     0.885500000000     0.085000000000     0          
O539     O      0.733000000000     0.845600000000     0.179200000000     0          
C540     C      0.623100000000     0.819200000000     0.203700000000     0          
C541     C      0.595900000000     0.813000000000     0.250500000000     0          
H542     H      0.597700000000     0.798230000000     0.292080000000     0          
C543     C      0.565900000000     0.828500000000     0.236100000000     0          
H544     H      0.547910000000     0.823780000000     0.268040000000     0          
C545     C      0.655000000000     0.803800000000     0.219200000000     0          
C546     C      0.562200000000     0.851100000000     0.174700000000     0          
C547     C      0.619600000000     0.840900000000     0.143800000000     0          
H548     H      0.637550000000     0.844780000000     0.110990000000     0          
C549     C      0.528400000000     0.926000000000     0.847900000000     0          
H550     H      0.548300000000     0.929540000000     0.822210000000     0          
C551     C      0.590400000000     0.857500000000     0.129700000000     0          
H552     H      0.589520000000     0.873090000000     0.089770000000     0          
C553     C      0.529200000000     0.913000000000     0.922600000000     0          
H554     H      0.548880000000     0.910460000000     0.949790000000     0          
B555     B      0.529200000000     0.869300000000     0.158600000000     0          
O556     O      0.757300000000     0.816300000000     0.062200000000     0          
O557     O      0.816700000000     0.781000000000     0.082400000000     0          
C558     C      0.793800000000     0.813100000000     0.045000000000     0          
C559     C      0.842300000000     0.769000000000     0.036400000000     0          
O560     O      0.535200000000     0.905300000000     0.222400000000     0          
Zr561    Zr     0.043080000000     0.520750000000     0.909090000000     0          
O562     O      0.060600000000     0.571660000000     0.923600000000     0          
O563     O      0.033300000000     0.593610000000     0.026200000000     0          
O564     O      0.042500000000     0.526200000000     0.034800000000     0          
O565     O      0.204270000000     0.723500000000     0.447800000000     0          
O566     O      0.135500000000     0.721000000000     0.835000000000     0          
O567     O      0.095600000000     0.517000000000     0.929200000000     0          
C568     C      0.069200000000     0.626900000000     0.953700000000     0          
C569     C      0.063000000000     0.654100000000     0.000500000000     0          
H570     H      0.048230000000     0.652300000000     0.042080000000     0          
C571     C      0.078500000000     0.684100000000     0.986100000000     0          
H572     H      0.073780000000     0.702090000000     0.018040000000     0          
C573     C      0.053800000000     0.595000000000     0.969200000000     0          
C574     C      0.101100000000     0.687800000000     0.924700000000     0          
C575     C      0.090900000000     0.630400000000     0.893800000000     0          
H576     H      0.094780000000     0.612450000000     0.860990000000     0          
C577     C      0.176000000000     0.721600000000     0.597900000000     0          
H578     H      0.179540000000     0.701700000000     0.572210000000     0          
C579     C      0.107500000000     0.659600000000     0.879700000000     0          
H580     H      0.123090000000     0.660480000000     0.839770000000     0          
C581     C      0.163000000000     0.720800000000     0.672600000000     0          
H582     H      0.160460000000     0.701120000000     0.699790000000     0          
B583     B      0.119300000000     0.720800000000     0.908600000000     0          
O584     O      0.066300000000     0.492700000000     0.812200000000     0          
O585     O      0.031000000000     0.433300000000     0.832400000000     0          
C586     C      0.063100000000     0.456200000000     0.795000000000     0          
C587     C      0.019000000000     0.407700000000     0.786400000000     0          
O588     O      0.155300000000     0.714800000000     0.972400000000     0          
Zr589    Zr     0.543080000000     0.020750000000     0.409090000000     0          
O590     O      0.560600000000     0.071660000000     0.423600000000     0          
O591     O      0.533300000000     0.093610000000     0.526200000000     0          
O592     O      0.542500000000     0.026200000000     0.534800000000     0          
O593     O      0.704270000000     0.223500000000     0.947800000000     0          
O594     O      0.635500000000     0.221000000000     0.335000000000     0          
O595     O      0.595600000000     0.017000000000     0.429200000000     0          
C596     C      0.569200000000     0.126900000000     0.453700000000     0          
C597     C      0.563000000000     0.154100000000     0.500500000000     0          
H598     H      0.548230000000     0.152300000000     0.542080000000     0          
C599     C      0.578500000000     0.184100000000     0.486100000000     0          
H600     H      0.573780000000     0.202090000000     0.518040000000     0          
C601     C      0.553800000000     0.095000000000     0.469200000000     0          
C602     C      0.601100000000     0.187800000000     0.424700000000     0          
C603     C      0.590900000000     0.130400000000     0.393800000000     0          
H604     H      0.594780000000     0.112450000000     0.360990000000     0          
C605     C      0.676000000000     0.221600000000     0.097900000000     0          
H606     H      0.679540000000     0.201700000000     0.072210000000     0          
C607     C      0.607500000000     0.159600000000     0.379700000000     0          
H608     H      0.623090000000     0.160480000000     0.339770000000     0          
C609     C      0.663000000000     0.220800000000     0.172600000000     0          
H610     H      0.660460000000     0.201120000000     0.199790000000     0          
B611     B      0.619300000000     0.220800000000     0.408600000000     0          
O612     O      0.566300000000     0.992700000000     0.312200000000     0          
O613     O      0.531000000000     0.933300000000     0.332400000000     0          
C614     C      0.563100000000     0.956200000000     0.295000000000     0          
C615     C      0.519000000000     0.907700000000     0.286400000000     0          
O616     O      0.655300000000     0.214800000000     0.472400000000     0          
Zr617    Zr     0.456920000000     0.479250000000     0.409090000000     0          
O618     O      0.439400000000     0.428340000000     0.423600000000     0          
O619     O      0.466700000000     0.406390000000     0.526200000000     0          
O620     O      0.457500000000     0.473800000000     0.534800000000     0          
O621     O      0.295730000000     0.276500000000     0.947800000000     0          
O622     O      0.364500000000     0.279000000000     0.335000000000     0          
O623     O      0.404400000000     0.483000000000     0.429200000000     0          
C624     C      0.430800000000     0.373100000000     0.453700000000     0          
C625     C      0.437000000000     0.345900000000     0.500500000000     0          
H626     H      0.451770000000     0.347700000000     0.542080000000     0          
C627     C      0.421500000000     0.315900000000     0.486100000000     0          
H628     H      0.426220000000     0.297910000000     0.518040000000     0          
C629     C      0.446200000000     0.405000000000     0.469200000000     0          
C630     C      0.398900000000     0.312200000000     0.424700000000     0          
C631     C      0.409100000000     0.369600000000     0.393800000000     0          
H632     H      0.405220000000     0.387550000000     0.360990000000     0          
C633     C      0.324000000000     0.278400000000     0.097900000000     0          
H634     H      0.320460000000     0.298300000000     0.072210000000     0          
C635     C      0.392500000000     0.340400000000     0.379700000000     0          
H636     H      0.376910000000     0.339520000000     0.339770000000     0          
C637     C      0.337000000000     0.279200000000     0.172600000000     0          
H638     H      0.339540000000     0.298880000000     0.199790000000     0          
B639     B      0.380700000000     0.279200000000     0.408600000000     0          
O640     O      0.433700000000     0.507300000000     0.312200000000     0          
O641     O      0.469000000000     0.566700000000     0.332400000000     0          
C642     C      0.436900000000     0.543800000000     0.295000000000     0          
C643     C      0.481000000000     0.592300000000     0.286400000000     0          
O644     O      0.344700000000     0.285200000000     0.472400000000     0          
Zr645    Zr     0.956920000000     0.979250000000     0.909090000000     0          
O646     O      0.939400000000     0.928340000000     0.923600000000     0          
O647     O      0.966700000000     0.906390000000     0.026200000000     0          
O648     O      0.957500000000     0.973800000000     0.034800000000     0          
O649     O      0.795730000000     0.776500000000     0.447800000000     0          
O650     O      0.864500000000     0.779000000000     0.835000000000     0          
O651     O      0.904400000000     0.983000000000     0.929200000000     0          
C652     C      0.930800000000     0.873100000000     0.953700000000     0          
C653     C      0.937000000000     0.845900000000     0.000500000000     0          
H654     H      0.951770000000     0.847700000000     0.042080000000     0          
C655     C      0.921500000000     0.815900000000     0.986100000000     0          
H656     H      0.926220000000     0.797910000000     0.018040000000     0          
C657     C      0.946200000000     0.905000000000     0.969200000000     0          
C658     C      0.898900000000     0.812200000000     0.924700000000     0          
C659     C      0.909100000000     0.869600000000     0.893800000000     0          
H660     H      0.905220000000     0.887550000000     0.860990000000     0          
C661     C      0.824000000000     0.778400000000     0.597900000000     0          
H662     H      0.820460000000     0.798300000000     0.572210000000     0          
C663     C      0.892500000000     0.840400000000     0.879700000000     0          
H664     H      0.876910000000     0.839520000000     0.839770000000     0          
C665     C      0.837000000000     0.779200000000     0.672600000000     0          
H666     H      0.839540000000     0.798880000000     0.699790000000     0          
B667     B      0.880700000000     0.779200000000     0.908600000000     0          
O668     O      0.933700000000     0.007300000000     0.812200000000     0          
O669     O      0.969000000000     0.066700000000     0.832400000000     0          
C670     C      0.936900000000     0.043800000000     0.795000000000     0          
C671     C      0.981000000000     0.092300000000     0.786400000000     0          
O672     O      0.844700000000     0.785200000000     0.972400000000     0          
Zr673    Zr     0.229250000000     0.706920000000     0.340910000000     0          
O674     O      0.178340000000     0.689400000000     0.326400000000     0          
O675     O      0.156390000000     0.716700000000     0.223800000000     0          
O676     O      0.223800000000     0.707500000000     0.215200000000     0          
O677     O      0.026500000000     0.545730000000     0.802200000000     0          
O678     O      0.029000000000     0.614500000000     0.415000000000     0          
O679     O      0.233000000000     0.654400000000     0.320800000000     0          
C680     C      0.123100000000     0.680800000000     0.296300000000     0          
C681     C      0.095900000000     0.687000000000     0.249500000000     0          
H682     H      0.097700000000     0.701770000000     0.207920000000     0          
C683     C      0.065900000000     0.671500000000     0.263900000000     0          
H684     H      0.047910000000     0.676220000000     0.231960000000     0          
C685     C      0.155000000000     0.696200000000     0.280800000000     0          
C686     C      0.062200000000     0.648900000000     0.325300000000     0          
C687     C      0.119600000000     0.659100000000     0.356200000000     0          
H688     H      0.137550000000     0.655220000000     0.389010000000     0          
C689     C      0.028400000000     0.574000000000     0.652100000000     0          
H690     H      0.048300000000     0.570460000000     0.677790000000     0          
C691     C      0.090400000000     0.642500000000     0.370300000000     0          
H692     H      0.089520000000     0.626910000000     0.410230000000     0          
C693     C      0.029200000000     0.587000000000     0.577400000000     0          
H694     H      0.048880000000     0.589540000000     0.550210000000     0          
B695     B      0.029200000000     0.630700000000     0.341400000000     0          
O696     O      0.257300000000     0.683700000000     0.437800000000     0          
O697     O      0.316700000000     0.719000000000     0.417600000000     0          
C698     C      0.293800000000     0.686900000000     0.455000000000     0          
C699     C      0.342300000000     0.731000000000     0.463600000000     0          
O700     O      0.035200000000     0.594700000000     0.277600000000     0          
Zr701    Zr     0.729250000000     0.206920000000     0.840910000000     0          
O702     O      0.678340000000     0.189400000000     0.826400000000     0          
O703     O      0.656390000000     0.216700000000     0.723800000000     0          
O704     O      0.723800000000     0.207500000000     0.715200000000     0          
O705     O      0.526500000000     0.045730000000     0.302200000000     0          
O706     O      0.529000000000     0.114500000000     0.915000000000     0          
O707     O      0.733000000000     0.154400000000     0.820800000000     0          
C708     C      0.623100000000     0.180800000000     0.796300000000     0          
C709     C      0.595900000000     0.187000000000     0.749500000000     0          
H710     H      0.597700000000     0.201770000000     0.707920000000     0          
C711     C      0.565900000000     0.171500000000     0.763900000000     0          
H712     H      0.547910000000     0.176220000000     0.731960000000     0          
C713     C      0.655000000000     0.196200000000     0.780800000000     0          
C714     C      0.562200000000     0.148900000000     0.825300000000     0          
C715     C      0.619600000000     0.159100000000     0.856200000000     0          
H716     H      0.637550000000     0.155220000000     0.889010000000     0          
C717     C      0.528400000000     0.074000000000     0.152100000000     0          
H718     H      0.548300000000     0.070460000000     0.177790000000     0          
C719     C      0.590400000000     0.142500000000     0.870300000000     0          
H720     H      0.589520000000     0.126910000000     0.910230000000     0          
C721     C      0.529200000000     0.087000000000     0.077400000000     0          
H722     H      0.548880000000     0.089540000000     0.050210000000     0          
B723     B      0.529200000000     0.130700000000     0.841400000000     0          
O724     O      0.757300000000     0.183700000000     0.937800000000     0          
O725     O      0.816700000000     0.219000000000     0.917600000000     0          
C726     C      0.793800000000     0.186900000000     0.955000000000     0          
C727     C      0.842300000000     0.231000000000     0.963600000000     0          
O728     O      0.535200000000     0.094700000000     0.777600000000     0          
Zr729    Zr     0.270750000000     0.293080000000     0.840910000000     0          
O730     O      0.321660000000     0.310600000000     0.826400000000     0          
O731     O      0.343610000000     0.283300000000     0.723800000000     0          
O732     O      0.276200000000     0.292500000000     0.715200000000     0          
O733     O      0.473500000000     0.454270000000     0.302200000000     0          
O734     O      0.471000000000     0.385500000000     0.915000000000     0          
O735     O      0.267000000000     0.345600000000     0.820800000000     0          
C736     C      0.376900000000     0.319200000000     0.796300000000     0          
C737     C      0.404100000000     0.313000000000     0.749500000000     0          
H738     H      0.402300000000     0.298230000000     0.707920000000     0          
C739     C      0.434100000000     0.328500000000     0.763900000000     0          
H740     H      0.452090000000     0.323780000000     0.731960000000     0          
C741     C      0.345000000000     0.303800000000     0.780800000000     0          
C742     C      0.437800000000     0.351100000000     0.825300000000     0          
C743     C      0.380400000000     0.340900000000     0.856200000000     0          
H744     H      0.362450000000     0.344780000000     0.889010000000     0          
C745     C      0.471600000000     0.426000000000     0.152100000000     0          
H746     H      0.451700000000     0.429540000000     0.177790000000     0          
C747     C      0.409600000000     0.357500000000     0.870300000000     0          
H748     H      0.410480000000     0.373090000000     0.910230000000     0          
C749     C      0.470800000000     0.413000000000     0.077400000000     0          
H750     H      0.451120000000     0.410460000000     0.050210000000     0          
B751     B      0.470800000000     0.369300000000     0.841400000000     0          
O752     O      0.242700000000     0.316300000000     0.937800000000     0          
O753     O      0.183300000000     0.281000000000     0.917600000000     0          
C754     C      0.206200000000     0.313100000000     0.955000000000     0          
C755     C      0.157700000000     0.269000000000     0.963600000000     0          
O756     O      0.464800000000     0.405300000000     0.777600000000     0          
Zr757    Zr     0.770750000000     0.793080000000     0.340910000000     0          
O758     O      0.821660000000     0.810600000000     0.326400000000     0          
O759     O      0.843610000000     0.783300000000     0.223800000000     0          
O760     O      0.776200000000     0.792500000000     0.215200000000     0          
O761     O      0.973500000000     0.954270000000     0.802200000000     0          
O762     O      0.971000000000     0.885500000000     0.415000000000     0          
O763     O      0.767000000000     0.845600000000     0.320800000000     0          
C764     C      0.876900000000     0.819200000000     0.296300000000     0          
C765     C      0.904100000000     0.813000000000     0.249500000000     0          
H766     H      0.902300000000     0.798230000000     0.207920000000     0          
C767     C      0.934100000000     0.828500000000     0.263900000000     0          
H768     H      0.952090000000     0.823780000000     0.231960000000     0          
C769     C      0.845000000000     0.803800000000     0.280800000000     0          
C770     C      0.937800000000     0.851100000000     0.325300000000     0          
C771     C      0.880400000000     0.840900000000     0.356200000000     0          
H772     H      0.862450000000     0.844780000000     0.389010000000     0          
C773     C      0.971600000000     0.926000000000     0.652100000000     0          
H774     H      0.951700000000     0.929540000000     0.677790000000     0          
C775     C      0.909600000000     0.857500000000     0.370300000000     0          
H776     H      0.910480000000     0.873090000000     0.410230000000     0          
C777     C      0.970800000000     0.913000000000     0.577400000000     0          
H778     H      0.951120000000     0.910460000000     0.550210000000     0          
B779     B      0.970800000000     0.869300000000     0.341400000000     0          
O780     O      0.742700000000     0.816300000000     0.437800000000     0          
O781     O      0.683300000000     0.781000000000     0.417600000000     0          
C782     C      0.706200000000     0.813100000000     0.455000000000     0          
C783     C      0.657700000000     0.769000000000     0.463600000000     0          
O784     O      0.964800000000     0.905300000000     0.277600000000     0          
Zr785    Zr     0.456920000000     0.520750000000     0.590910000000     0          
O786     O      0.439400000000     0.571660000000     0.576400000000     0          
O787     O      0.466700000000     0.593610000000     0.473800000000     0          
O788     O      0.457500000000     0.526200000000     0.465200000000     0          
O789     O      0.295730000000     0.723500000000     0.052200000000     0          
O790     O      0.364500000000     0.721000000000     0.665000000000     0          
O791     O      0.404400000000     0.517000000000     0.570800000000     0          
C792     C      0.430800000000     0.626900000000     0.546300000000     0          
C793     C      0.437000000000     0.654100000000     0.499500000000     0          
H794     H      0.451770000000     0.652300000000     0.457920000000     0          
C795     C      0.421500000000     0.684100000000     0.513900000000     0          
H796     H      0.426220000000     0.702090000000     0.481960000000     0          
C797     C      0.446200000000     0.595000000000     0.530800000000     0          
C798     C      0.398900000000     0.687800000000     0.575300000000     0          
C799     C      0.409100000000     0.630400000000     0.606200000000     0          
H800     H      0.405220000000     0.612450000000     0.639010000000     0          
C801     C      0.324000000000     0.721600000000     0.902100000000     0          
H802     H      0.320460000000     0.701700000000     0.927790000000     0          
C803     C      0.392500000000     0.659600000000     0.620300000000     0          
H804     H      0.376910000000     0.660480000000     0.660230000000     0          
C805     C      0.337000000000     0.720800000000     0.827400000000     0          
H806     H      0.339540000000     0.701120000000     0.800210000000     0          
B807     B      0.380700000000     0.720800000000     0.591400000000     0          
O808     O      0.433700000000     0.492700000000     0.687800000000     0          
O809     O      0.469000000000     0.433300000000     0.667600000000     0          
C810     C      0.436900000000     0.456200000000     0.705000000000     0          
C811     C      0.481000000000     0.407700000000     0.713600000000     0          
O812     O      0.344700000000     0.714800000000     0.527600000000     0          
Zr813    Zr     0.956920000000     0.020750000000     0.090910000000     0          
O814     O      0.939400000000     0.071660000000     0.076400000000     0          
O815     O      0.966700000000     0.093610000000     0.973800000000     0          
O816     O      0.957500000000     0.026200000000     0.965200000000     0          
O817     O      0.795730000000     0.223500000000     0.552200000000     0          
O818     O      0.864500000000     0.221000000000     0.165000000000     0          
O819     O      0.904400000000     0.017000000000     0.070800000000     0          
C820     C      0.930800000000     0.126900000000     0.046300000000     0          
C821     C      0.937000000000     0.154100000000     0.999500000000     0          
H822     H      0.951770000000     0.152300000000     0.957920000000     0          
C823     C      0.921500000000     0.184100000000     0.013900000000     0          
H824     H      0.926220000000     0.202090000000     0.981960000000     0          
C825     C      0.946200000000     0.095000000000     0.030800000000     0          
C826     C      0.898900000000     0.187800000000     0.075300000000     0          
C827     C      0.909100000000     0.130400000000     0.106200000000     0          
H828     H      0.905220000000     0.112450000000     0.139010000000     0          
C829     C      0.824000000000     0.221600000000     0.402100000000     0          
H830     H      0.820460000000     0.201700000000     0.427790000000     0          
C831     C      0.892500000000     0.159600000000     0.120300000000     0          
H832     H      0.876910000000     0.160480000000     0.160230000000     0          
C833     C      0.837000000000     0.220800000000     0.327400000000     0          
H834     H      0.839540000000     0.201120000000     0.300210000000     0          
B835     B      0.880700000000     0.220800000000     0.091400000000     0          
O836     O      0.933700000000     0.992700000000     0.187800000000     0          
O837     O      0.969000000000     0.933300000000     0.167600000000     0          
C838     C      0.936900000000     0.956200000000     0.205000000000     0          
C839     C      0.981000000000     0.907700000000     0.213600000000     0          
O840     O      0.844700000000     0.214800000000     0.027600000000     0          
Zr841    Zr     0.043080000000     0.479250000000     0.090910000000     0          
O842     O      0.060600000000     0.428340000000     0.076400000000     0          
O843     O      0.033300000000     0.406390000000     0.973800000000     0          
O844     O      0.042500000000     0.473800000000     0.965200000000     0          
O845     O      0.204270000000     0.276500000000     0.552200000000     0          
O846     O      0.135500000000     0.279000000000     0.165000000000     0          
O847     O      0.095600000000     0.483000000000     0.070800000000     0          
C848     C      0.069200000000     0.373100000000     0.046300000000     0          
C849     C      0.063000000000     0.345900000000     0.999500000000     0          
H850     H      0.048230000000     0.347700000000     0.957920000000     0          
C851     C      0.078500000000     0.315900000000     0.013900000000     0          
H852     H      0.073780000000     0.297910000000     0.981960000000     0          
C853     C      0.053800000000     0.405000000000     0.030800000000     0          
C854     C      0.101100000000     0.312200000000     0.075300000000     0          
C855     C      0.090900000000     0.369600000000     0.106200000000     0          
H856     H      0.094780000000     0.387550000000     0.139010000000     0          
C857     C      0.176000000000     0.278400000000     0.402100000000     0          
H858     H      0.179540000000     0.298300000000     0.427790000000     0          
C859     C      0.107500000000     0.340400000000     0.120300000000     0          
H860     H      0.123090000000     0.339520000000     0.160230000000     0          
C861     C      0.163000000000     0.279200000000     0.327400000000     0          
H862     H      0.160460000000     0.298880000000     0.300210000000     0          
B863     B      0.119300000000     0.279200000000     0.091400000000     0          
O864     O      0.066300000000     0.507300000000     0.187800000000     0          
O865     O      0.031000000000     0.566700000000     0.167600000000     0          
C866     C      0.063100000000     0.543800000000     0.205000000000     0          
C867     C      0.019000000000     0.592300000000     0.213600000000     0          
O868     O      0.155300000000     0.285200000000     0.027600000000     0          
Zr869    Zr     0.543080000000     0.979250000000     0.590910000000     0          
O870     O      0.560600000000     0.928340000000     0.576400000000     0          
O871     O      0.533300000000     0.906390000000     0.473800000000     0          
O872     O      0.542500000000     0.973800000000     0.465200000000     0          
O873     O      0.704270000000     0.776500000000     0.052200000000     0          
O874     O      0.635500000000     0.779000000000     0.665000000000     0          
O875     O      0.595600000000     0.983000000000     0.570800000000     0          
C876     C      0.569200000000     0.873100000000     0.546300000000     0          
C877     C      0.563000000000     0.845900000000     0.499500000000     0          
H878     H      0.548230000000     0.847700000000     0.457920000000     0          
C879     C      0.578500000000     0.815900000000     0.513900000000     0          
H880     H      0.573780000000     0.797910000000     0.481960000000     0          
C881     C      0.553800000000     0.905000000000     0.530800000000     0          
C882     C      0.601100000000     0.812200000000     0.575300000000     0          
C883     C      0.590900000000     0.869600000000     0.606200000000     0          
H884     H      0.594780000000     0.887550000000     0.639010000000     0          
C885     C      0.676000000000     0.778400000000     0.902100000000     0          
H886     H      0.679540000000     0.798300000000     0.927790000000     0          
C887     C      0.607500000000     0.840400000000     0.620300000000     0          
H888     H      0.623090000000     0.839520000000     0.660230000000     0          
C889     C      0.663000000000     0.779200000000     0.827400000000     0          
H890     H      0.660460000000     0.798880000000     0.800210000000     0          
B891     B      0.619300000000     0.779200000000     0.591400000000     0          
O892     O      0.566300000000     0.007300000000     0.687800000000     0          
O893     O      0.531000000000     0.066700000000     0.667600000000     0          
C894     C      0.563100000000     0.043800000000     0.705000000000     0          
C895     C      0.519000000000     0.092300000000     0.713600000000     0          
O896     O      0.655300000000     0.785200000000     0.527600000000     0          
Zr897    Zr     0.696080000000     0.250000000000     0.682420000000     0          
O898     O      0.742900000000     0.250000000000     0.622900000000     0          
O899     O      0.703400000000     0.250000000000     0.805100000000     0          
Zr900    Zr     0.803920000000     0.750000000000     0.182420000000     0          
O901     O      0.757100000000     0.750000000000     0.122900000000     0          
O902     O      0.796600000000     0.750000000000     0.305100000000     0          
Zr903    Zr     0.000000000000     0.446080000000     0.932420000000     0          
O904     O      0.000000000000     0.492900000000     0.872900000000     0          
O905     O      0.000000000000     0.453400000000     0.055100000000     0          
Zr906    Zr     0.500000000000     0.946080000000     0.432420000000     0          
O907     O      0.500000000000     0.992900000000     0.372900000000     0          
O908     O      0.500000000000     0.953400000000     0.555100000000     0          
Zr909    Zr     0.500000000000     0.553920000000     0.432420000000     0          
O910     O      0.500000000000     0.507100000000     0.372900000000     0          
O911     O      0.500000000000     0.546600000000     0.555100000000     0          
Zr912    Zr     0.000000000000     0.053920000000     0.932420000000     0          
O913     O      0.000000000000     0.007100000000     0.872900000000     0          
O914     O      0.000000000000     0.046600000000     0.055100000000     0          
Zr915    Zr     0.803920000000     0.250000000000     0.817580000000     0          
O916     O      0.757100000000     0.250000000000     0.877100000000     0          
O917     O      0.796600000000     0.250000000000     0.694900000000     0          
Zr918    Zr     0.696080000000     0.750000000000     0.317580000000     0          
O919     O      0.742900000000     0.750000000000     0.377100000000     0          
O920     O      0.703400000000     0.750000000000     0.194900000000     0          
Zr921    Zr     0.196080000000     0.250000000000     0.817580000000     0          
O922     O      0.242900000000     0.250000000000     0.877100000000     0          
O923     O      0.203400000000     0.250000000000     0.694900000000     0          
Zr924    Zr     0.500000000000     0.446080000000     0.567580000000     0          
O925     O      0.500000000000     0.492900000000     0.627100000000     0          
O926     O      0.500000000000     0.453400000000     0.444900000000     0          
Zr927    Zr     0.000000000000     0.946080000000     0.067580000000     0          
O928     O      0.000000000000     0.992900000000     0.127100000000     0          
O929     O      0.000000000000     0.953400000000     0.944900000000     0          
Zr930    Zr     0.000000000000     0.553920000000     0.067580000000     0          
O931     O      0.000000000000     0.507100000000     0.127100000000     0          
O932     O      0.000000000000     0.546600000000     0.944900000000     0          
Zr933    Zr     0.500000000000     0.053920000000     0.567580000000     0          
O934     O      0.500000000000     0.007100000000     0.627100000000     0          
O935     O      0.500000000000     0.046600000000     0.444900000000     0          
Zr936    Zr     0.303920000000     0.750000000000     0.317580000000     0          
O937     O      0.257100000000     0.750000000000     0.377100000000     0          
O938     O      0.296600000000     0.750000000000     0.194900000000     0          
Zr939    Zr     0.196080000000     0.750000000000     0.182420000000     0          
O940     O      0.242900000000     0.750000000000     0.122900000000     0          
O941     O      0.203400000000     0.750000000000     0.305100000000     0          
Zr942    Zr     0.303920000000     0.250000000000     0.682420000000     0          
O943     O      0.257100000000     0.250000000000     0.622900000000     0          
O944     O      0.296600000000     0.250000000000     0.805100000000     0          
C945     C      0.500000000000     0.448300000000     0.265100000000     0          
C946     C      0.500000000000     0.433700000000     0.190100000000     0          
C947     C      0.500000000000     0.404200000000     0.045000000000     0          
B948     B      0.500000000000     0.390500000000     0.950000000000     0          
O949     O      0.500000000000     0.357200000000     0.814800000000     0          
C950     C      0.000000000000     0.948300000000     0.765100000000     0          
C951     C      0.000000000000     0.933700000000     0.690100000000     0          
C952     C      0.000000000000     0.904200000000     0.545000000000     0          
B953     B      0.000000000000     0.890500000000     0.450000000000     0          
O954     O      0.000000000000     0.857200000000     0.314800000000     0          
C955     C      0.000000000000     0.551700000000     0.765100000000     0          
C956     C      0.000000000000     0.566300000000     0.690100000000     0          
C957     C      0.000000000000     0.595800000000     0.545000000000     0          
B958     B      0.000000000000     0.609500000000     0.450000000000     0          
O959     O      0.000000000000     0.642800000000     0.314800000000     0          
C960     C      0.500000000000     0.051700000000     0.265100000000     0          
C961     C      0.500000000000     0.066300000000     0.190100000000     0          
C962     C      0.500000000000     0.095800000000     0.045000000000     0          
B963     B      0.500000000000     0.109500000000     0.950000000000     0          
O964     O      0.500000000000     0.142800000000     0.814800000000     0          
C965     C      0.801700000000     0.250000000000     0.515100000000     0          
C966     C      0.816300000000     0.250000000000     0.440100000000     0          
C967     C      0.845800000000     0.250000000000     0.295000000000     0          
B968     B      0.859500000000     0.250000000000     0.200000000000     0          
O969     O      0.892800000000     0.250000000000     0.064800000000     0          
C970     C      0.698300000000     0.750000000000     0.015100000000     0          
C971     C      0.683700000000     0.750000000000     0.940100000000     0          
C972     C      0.654200000000     0.750000000000     0.795000000000     0          
B973     B      0.640500000000     0.750000000000     0.700000000000     0          
O974     O      0.607200000000     0.750000000000     0.564800000000     0          
C975     C      0.000000000000     0.448300000000     0.234900000000     0          
C976     C      0.000000000000     0.433700000000     0.309900000000     0          
C977     C      0.000000000000     0.404200000000     0.455000000000     0          
B978     B      0.000000000000     0.390500000000     0.550000000000     0          
O979     O      0.000000000000     0.357200000000     0.685200000000     0          
C980     C      0.500000000000     0.948300000000     0.734900000000     0          
C981     C      0.500000000000     0.933700000000     0.809900000000     0          
C982     C      0.500000000000     0.904200000000     0.955000000000     0          
B983     B      0.500000000000     0.890500000000     0.050000000000     0          
O984     O      0.500000000000     0.857200000000     0.185200000000     0          
C985     C      0.500000000000     0.551700000000     0.734900000000     0          
C986     C      0.500000000000     0.566300000000     0.809900000000     0          
C987     C      0.500000000000     0.595800000000     0.955000000000     0          
B988     B      0.500000000000     0.609500000000     0.050000000000     0          
O989     O      0.500000000000     0.642800000000     0.185200000000     0          
C990     C      0.000000000000     0.051700000000     0.234900000000     0          
C991     C      0.000000000000     0.066300000000     0.309900000000     0          
C992     C      0.000000000000     0.095800000000     0.455000000000     0          
B993     B      0.000000000000     0.109500000000     0.550000000000     0          
O994     O      0.000000000000     0.142800000000     0.685200000000     0          
C995     C      0.698300000000     0.250000000000     0.984900000000     0          
C996     C      0.683700000000     0.250000000000     0.059900000000     0          
C997     C      0.654200000000     0.250000000000     0.205000000000     0          
B998     B      0.640500000000     0.250000000000     0.300000000000     0          
O999     O      0.607200000000     0.250000000000     0.435200000000     0          
C1000    C      0.801700000000     0.750000000000     0.484900000000     0          
C1001    C      0.816300000000     0.750000000000     0.559900000000     0          
C1002    C      0.845800000000     0.750000000000     0.705000000000     0          
B1003    B      0.859500000000     0.750000000000     0.800000000000     0          
O1004    O      0.892800000000     0.750000000000     0.935200000000     0          
C1005    C      0.198300000000     0.750000000000     0.484900000000     0          
C1006    C      0.183700000000     0.750000000000     0.559900000000     0          
C1007    C      0.154200000000     0.750000000000     0.705000000000     0          
B1008    B      0.140500000000     0.750000000000     0.800000000000     0          
O1009    O      0.107200000000     0.750000000000     0.935200000000     0          
C1010    C      0.301700000000     0.250000000000     0.984900000000     0          
C1011    C      0.316300000000     0.250000000000     0.059900000000     0          
C1012    C      0.345800000000     0.250000000000     0.205000000000     0          
B1013    B      0.359500000000     0.250000000000     0.300000000000     0          
O1014    O      0.392800000000     0.250000000000     0.435200000000     0          
C1015    C      0.301700000000     0.750000000000     0.015100000000     0          
C1016    C      0.316300000000     0.750000000000     0.940100000000     0          
C1017    C      0.345800000000     0.750000000000     0.795000000000     0          
B1018    B      0.359500000000     0.750000000000     0.700000000000     0          
O1019    O      0.392800000000     0.750000000000     0.564800000000     0          
C1020    C      0.198300000000     0.250000000000     0.515100000000     0          
C1021    C      0.183700000000     0.250000000000     0.440100000000     0          
C1022    C      0.154200000000     0.250000000000     0.295000000000     0          
B1023    B      0.140500000000     0.250000000000     0.200000000000     0          
O1024    O      0.107200000000     0.250000000000     0.064800000000     0          
C1025    C      0.750000000000     0.355000000000     0.750000000000     0          
H1026    H      0.750000000000     0.377920000000     0.750000000000     0          
C1027    C      0.250000000000     0.855000000000     0.250000000000     0          
H1028    H      0.250000000000     0.877920000000     0.250000000000     0          
C1029    C      0.750000000000     0.645000000000     0.250000000000     0          
H1030    H      0.750000000000     0.622080000000     0.250000000000     0          
C1031    C      0.250000000000     0.145000000000     0.750000000000     0          
H1032    H      0.250000000000     0.122080000000     0.750000000000     0          
C1033    C      0.895000000000     0.500000000000     0.000000000000     0          
H1034    H      0.872080000000     0.500000000000     0.000000000000     0          
C1035    C      0.395000000000     0.000000000000     0.500000000000     0          
H1036    H      0.372080000000     0.000000000000     0.500000000000     0          
C1037    C      0.605000000000     0.500000000000     0.500000000000     0          
H1038    H      0.627920000000     0.500000000000     0.500000000000     0          
C1039    C      0.105000000000     0.000000000000     0.000000000000     0          
H1040    H      0.127920000000     0.000000000000     0.000000000000     0          
C1041    C      0.250000000000     0.645000000000     0.250000000000     0          
H1042    H      0.250000000000     0.622080000000     0.250000000000     0          
C1043    C      0.750000000000     0.145000000000     0.750000000000     0          
H1044    H      0.750000000000     0.122080000000     0.750000000000     0          
C1045    C      0.250000000000     0.355000000000     0.750000000000     0          
H1046    H      0.250000000000     0.377920000000     0.750000000000     0          
C1047    C      0.750000000000     0.855000000000     0.250000000000     0          
H1048    H      0.750000000000     0.877920000000     0.250000000000     0          
C1049    C      0.105000000000     0.500000000000     0.000000000000     0          
H1050    H      0.127920000000     0.500000000000     0.000000000000     0          
C1051    C      0.605000000000     0.000000000000     0.500000000000     0          
H1052    H      0.627920000000     0.000000000000     0.500000000000     0          
C1053    C      0.395000000000     0.500000000000     0.500000000000     0          
H1054    H      0.372080000000     0.500000000000     0.500000000000     0          
C1055    C      0.895000000000     0.000000000000     0.000000000000     0          
H1056    H      0.872080000000     0.000000000000     0.000000000000     0          


