data_WERCOO

_audit_creation_method RASPA-1.0
_audit_creation_date 2020-11-2
_audit_author_name 'Rocio Bueno-Perez'

_cell_length_a    27.0284
_cell_length_b    29.1892
_cell_length_c    29.5728
_cell_angle_alpha 90
_cell_angle_beta  90
_cell_angle_gamma 90
_cell_volume      23331.1

_symmetry_cell_setting          triclinic
_symmetry_space_group_name_Hall 'P 1'
_symmetry_space_group_name_H-M  'P 1'
_symmetry_Int_Tables_number     1

_symmetry_equiv_pos_as_xyz 'x,y,z'

loop_
_atom_site_label
_atom_site_type_symbol
_atom_site_fract_x
_atom_site_fract_y
_atom_site_fract_z
_atom_site_charge
Zr1      Zr     0.805700000000     0.199590000000     0.251750000000     0          
Zr2      Zr     0.737630000000     0.211280000000     0.133130000000     0          
Zr3      Zr     0.726610000000     0.277330000000     0.012000000000     0          
P4       P      0.773060000000     0.112740000000     0.191880000000     0          
P5       P      0.633540000000     0.238030000000     0.068240000000     0          
O6       O      0.758300000000     0.833070000000     0.453390000000     0          
O7       O      0.751000000000     0.781910000000     0.399100000000     0          
O8       O      0.724650000000     0.082060000000     0.201370000000     0          
O9       O      0.817210000000     0.075920000000     0.184530000000     0          
O10      O      0.788500000000     0.137490000000     0.234580000000     0          
O11      O      0.761210000000     0.138590000000     0.150470000000     0          
O12      O      0.773600000000     0.770230000000     0.000550000000     0          
O13      O      0.758830000000     0.814550000000     0.940130000000     0          
O14      O      0.250990000000     0.236020000000     0.231440000000     0          
O15      O      0.294750000000     0.218400000000     0.293350000000     0          
O16      O      0.599800000000     0.282910000000     0.076880000000     0          
O17      O      0.595440000000     0.198250000000     0.056420000000     0          
O18      O      0.662500000000     0.250600000000     0.027360000000     0          
O19      O      0.658580000000     0.221050000000     0.108930000000     0          
O20      O      0.368100000000     0.278800000000     0.778280000000     0          
O21      O      0.308940000000     0.270570000000     0.825160000000     0          
O22      O      0.837800000000     0.190400000000     0.311980000000     0          
C23      C      0.751400000000     0.822300000000     0.412200000000     0          
C24      C      0.745100000000     0.860720000000     0.379680000000     0          
C25      C      0.731600000000     0.851130000000     0.335320000000     0          
H26      H      0.724700000000     0.821200000000     0.326700000000     0          
C27      C      0.728500000000     0.886340000000     0.303800000000     0          
H28      H      0.719500000000     0.879900000000     0.274100000000     0          
C29      C      0.738900000000     0.931130000000     0.316650000000     0          
C30      C      0.752300000000     0.940720000000     0.361020000000     0          
H31      H      0.759200000000     0.970700000000     0.369600000000     0          
C32      C      0.755400000000     0.905510000000     0.392530000000     0          
H33      H      0.764400000000     0.911900000000     0.422200000000     0          
C34      C      0.665200000000     0.083600000000     0.284600000000     0          
C35      C      0.734500000000     0.968860000000     0.284250000000     0          
C36      C      0.759850000000     0.969990000000     0.243360000000     0          
C37      C      0.755230000000     0.007690000000     0.214970000000     0          
C38      C      0.725300000000     0.044270000000     0.227460000000     0          
C39      C      0.699900000000     0.043140000000     0.268350000000     0          
C40      C      0.704600000000     0.005440000000     0.296740000000     0          
H41      H      0.687600000000     0.004700000000     0.324100000000     0          
C42      C      0.631500000000     0.067900000000     0.324400000000     0          
H43      H      0.610900000000     0.093000000000     0.333800000000     0          
H44      H      0.651700000000     0.058100000000     0.349300000000     0          
H45      H      0.611000000000     0.042900000000     0.314600000000     0          
C46      C      0.695300000000     0.124800000000     0.301600000000     0          
H47      H      0.673200000000     0.148600000000     0.311200000000     0          
H48      H      0.716000000000     0.136000000000     0.277600000000     0          
H49      H      0.715600000000     0.115500000000     0.326600000000     0          
C50      C      0.633800000000     0.101300000000     0.248100000000     0          
H51      H      0.613600000000     0.125800000000     0.259500000000     0          
H52      H      0.612900000000     0.077100000000     0.237000000000     0          
H53      H      0.654200000000     0.112500000000     0.224000000000     0          
C54      C      0.800100000000     0.931900000000     0.232900000000     0          
H55      H      0.814300000000     0.937300000000     0.203700000000     0          
H56      H      0.784800000000     0.902200000000     0.233400000000     0          
H57      H      0.825700000000     0.933100000000     0.255500000000     0          
C58      C      0.776070000000     0.007200000000     0.166300000000     0          
C59      C      0.767920000000     0.970280000000     0.137550000000     0          
C60      C      0.795120000000     0.966130000000     0.097880000000     0          
C61      C      0.830480000000     0.998890000000     0.086940000000     0          
H62      H      0.848700000000     0.996100000000     0.060400000000     0          
C63      C      0.838630000000     0.035800000000     0.115690000000     0          
C64      C      0.811420000000     0.039960000000     0.155360000000     0          
C65      C      0.882600000000     0.069900000000     0.105200000000     0          
C66      C      0.919700000000     0.065900000000     0.143200000000     0          
H67      H      0.946800000000     0.086400000000     0.137700000000     0          
H68      H      0.931800000000     0.035000000000     0.144800000000     0          
H69      H      0.904100000000     0.073800000000     0.171300000000     0          
C70      C      0.909300000000     0.059100000000     0.060500000000     0          
H71      H      0.935500000000     0.080900000000     0.055900000000     0          
H72      H      0.886200000000     0.061000000000     0.035900000000     0          
H73      H      0.923000000000     0.028800000000     0.061800000000     0          
C74      C      0.867900000000     0.120900000000     0.104300000000     0          
H75      H      0.896500000000     0.139200000000     0.097700000000     0          
H76      H      0.854700000000     0.129500000000     0.133200000000     0          
H77      H      0.843300000000     0.125700000000     0.081400000000     0          
C78      C      0.724000000000     0.936900000000     0.145800000000     0          
H79      H      0.708900000000     0.943700000000     0.174400000000     0          
H80      H      0.736000000000     0.906000000000     0.146000000000     0          
H81      H      0.700100000000     0.940400000000     0.122100000000     0          
C82      C      0.790500000000     0.925110000000     0.066980000000     0          
C83      C      0.779700000000     0.931390000000     0.021430000000     0          
H84      H      0.775800000000     0.960800000000     0.009900000000     0          
C85      C      0.774900000000     0.893680000000     0.993070000000     0          
H86      H      0.767700000000     0.897900000000     0.962600000000     0          
C87      C      0.780800000000     0.849700000000     0.010250000000     0          
C88      C      0.791500000000     0.843420000000     0.055800000000     0          
H89      H      0.795500000000     0.814000000000     0.067300000000     0          
C90      C      0.796400000000     0.881130000000     0.084160000000     0          
H91      H      0.803600000000     0.876900000000     0.114600000000     0          
C92      C      0.770300000000     0.808200000000     0.979700000000     0          
C93      C      0.290900000000     0.231100000000     0.253000000000     0          
C94      C      0.337830000000     0.244890000000     0.227950000000     0          
C95      C      0.334210000000     0.266820000000     0.186360000000     0          
H96      H      0.303500000000     0.276000000000     0.175500000000     0          
C97      C      0.376550000000     0.275030000000     0.160930000000     0          
H98      H      0.374100000000     0.289700000000     0.133100000000     0          
C99      C      0.422510000000     0.261310000000     0.177100000000     0          
C100     C      0.426130000000     0.239390000000     0.218700000000     0          
H101     H      0.456900000000     0.230200000000     0.229500000000     0          
C102     C      0.383790000000     0.231180000000     0.244120000000     0          
H103     H      0.386200000000     0.216500000000     0.271900000000     0          
C104     C      0.589100000000     0.338200000000     0.158600000000     0          
C105     C      0.468710000000     0.269430000000     0.148240000000     0          
C106     C      0.474980000000     0.247970000000     0.106670000000     0          
C107     C      0.518630000000     0.254030000000     0.082550000000     0          
C108     C      0.556010000000     0.281550000000     0.100000000000     0          
C109     C      0.549750000000     0.303000000000     0.141570000000     0          
C110     C      0.506100000000     0.296940000000     0.165690000000     0          
H111     H      0.501900000000     0.311300000000     0.193500000000     0          
C112     C      0.594100000000     0.376500000000     0.123700000000     0          
H113     H      0.618300000000     0.398200000000     0.133800000000     0          
H114     H      0.562700000000     0.391500000000     0.120100000000     0          
H115     H      0.604300000000     0.363700000000     0.095300000000     0          
C116     C      0.639900000000     0.316200000000     0.168700000000     0          
H117     H      0.662500000000     0.339400000000     0.178900000000     0          
H118     H      0.652600000000     0.302200000000     0.141800000000     0          
H119     H      0.636100000000     0.293400000000     0.191900000000     0          
C120     C      0.572900000000     0.361300000000     0.203200000000     0          
H121     H      0.597800000000     0.382600000000     0.212700000000     0          
H122     H      0.568500000000     0.338300000000     0.226100000000     0          
H123     H      0.542200000000     0.377200000000     0.198500000000     0          
C124     C      0.435700000000     0.212500000000     0.091500000000     0          
H125     H      0.408200000000     0.213300000000     0.112100000000     0          
H126     H      0.450100000000     0.182500000000     0.091500000000     0          
H127     H      0.424400000000     0.220000000000     0.061600000000     0          
C128     C      0.523530000000     0.237900000000     0.034030000000     0          
C129     C      0.489060000000     0.250100000000     0.001300000000     0          
C130     C      0.490500000000     0.229700000000     0.958860000000     0          
C131     C      0.526400000000     0.197100000000     0.949150000000     0          
H132     H      0.527400000000     0.183400000000     0.920800000000     0          
C133     C      0.560900000000     0.184800000000     0.981890000000     0          
C134     C      0.559440000000     0.205300000000     0.024320000000     0          
C135     C      0.594700000000     0.143900000000     0.973200000000     0          
C136     C      0.583700000000     0.117300000000     0.928800000000     0          
H137     H      0.588900000000     0.137100000000     0.903300000000     0          
H138     H      0.550000000000     0.106900000000     0.929000000000     0          
H139     H      0.605500000000     0.091400000000     0.926600000000     0          
C140     C      0.649100000000     0.151200000000     0.976800000000     0          
H141     H      0.656400000000     0.167500000000     0.004200000000     0          
H142     H      0.660300000000     0.168700000000     0.951300000000     0          
H143     H      0.665600000000     0.122100000000     0.977200000000     0          
C144     C      0.584300000000     0.104700000000     0.006200000000     0          
H145     H      0.589200000000     0.115200000000     0.036700000000     0          
H146     H      0.606300000000     0.079700000000     0.000100000000     0          
H147     H      0.550700000000     0.094600000000     0.002700000000     0          
C148     C      0.453100000000     0.290000000000     0.010500000000     0          
H149     H      0.456700000000     0.299900000000     0.041300000000     0          
H150     H      0.419800000000     0.279900000000     0.005400000000     0          
H151     H      0.460600000000     0.315000000000     0.990500000000     0          
C152     C      0.455530000000     0.241500000000     0.922220000000     0          
C153     C      0.472510000000     0.252800000000     0.879290000000     0          
H154     H      0.506300000000     0.254900000000     0.873800000000     0          
C155     C      0.438970000000     0.261100000000     0.844610000000     0          
H156     H      0.450300000000     0.268700000000     0.815900000000     0          
C157     C      0.388450000000     0.258100000000     0.852870000000     0          
C158     C      0.371470000000     0.246800000000     0.895800000000     0          
H159     H      0.337700000000     0.244800000000     0.901300000000     0          
C160     C      0.405010000000     0.238500000000     0.930480000000     0          
H161     H      0.393600000000     0.230900000000     0.959200000000     0          
C162     C      0.350800000000     0.268400000000     0.818100000000     0          
O163     O      0.713600000000     0.311000000000     0.955290000000     0          
O164     O      0.699000000000     0.335400000000     0.888400000000     0          
C165     C      0.722700000000     0.310700000000     0.914600000000     0          
C166     C      0.744800000000     0.266100000000     0.896800000000     0          
H167     H      0.761400000000     0.250400000000     0.921000000000     0          
H168     H      0.768100000000     0.272800000000     0.873200000000     0          
H169     H      0.718900000000     0.247100000000     0.885100000000     0          
O170     O      0.484700000000     0.455000000000     0.122500000000     0          
O171     O      0.424600000000     0.416900000000     0.160600000000     0          
C172     C      0.452400000000     0.425800000000     0.126300000000     0          
C173     C      0.435500000000     0.395600000000     0.086400000000     0          
O174     O      0.550700000000     0.164500000000     0.164400000000     0          
O175     O      0.504200000000     0.150100000000     0.224600000000     0          
C176     C      0.524400000000     0.139600000000     0.188500000000     0          
C177     C      0.516300000000     0.089300000000     0.173100000000     0          
Zr178    Zr     0.305700000000     0.699590000000     0.251750000000     0          
Zr179    Zr     0.237630000000     0.711280000000     0.133130000000     0          
Zr180    Zr     0.226610000000     0.777330000000     0.012000000000     0          
P181     P      0.273060000000     0.612740000000     0.191880000000     0          
P182     P      0.133540000000     0.738030000000     0.068240000000     0          
O183     O      0.258300000000     0.333070000000     0.453390000000     0          
O184     O      0.251000000000     0.281910000000     0.399100000000     0          
O185     O      0.224650000000     0.582060000000     0.201370000000     0          
O186     O      0.317210000000     0.575920000000     0.184530000000     0          
O187     O      0.288500000000     0.637490000000     0.234580000000     0          
O188     O      0.261210000000     0.638590000000     0.150470000000     0          
O189     O      0.273600000000     0.270230000000     0.000550000000     0          
O190     O      0.258830000000     0.314550000000     0.940130000000     0          
O191     O      0.750990000000     0.736020000000     0.231440000000     0          
O192     O      0.794750000000     0.718400000000     0.293350000000     0          
O193     O      0.099800000000     0.782910000000     0.076880000000     0          
O194     O      0.095440000000     0.698250000000     0.056420000000     0          
O195     O      0.162500000000     0.750600000000     0.027360000000     0          
O196     O      0.158580000000     0.721050000000     0.108930000000     0          
O197     O      0.868100000000     0.778800000000     0.778280000000     0          
O198     O      0.808940000000     0.770570000000     0.825160000000     0          
O199     O      0.337800000000     0.690400000000     0.311980000000     0          
C200     C      0.251400000000     0.322300000000     0.412200000000     0          
C201     C      0.245100000000     0.360720000000     0.379680000000     0          
C202     C      0.231600000000     0.351130000000     0.335320000000     0          
H203     H      0.224700000000     0.321200000000     0.326700000000     0          
C204     C      0.228500000000     0.386340000000     0.303800000000     0          
H205     H      0.219500000000     0.379900000000     0.274100000000     0          
C206     C      0.238900000000     0.431130000000     0.316650000000     0          
C207     C      0.252300000000     0.440720000000     0.361020000000     0          
H208     H      0.259200000000     0.470700000000     0.369600000000     0          
C209     C      0.255400000000     0.405510000000     0.392530000000     0          
H210     H      0.264400000000     0.411900000000     0.422200000000     0          
C211     C      0.165200000000     0.583600000000     0.284600000000     0          
C212     C      0.234500000000     0.468860000000     0.284250000000     0          
C213     C      0.259850000000     0.469990000000     0.243360000000     0          
C214     C      0.255230000000     0.507690000000     0.214970000000     0          
C215     C      0.225300000000     0.544270000000     0.227460000000     0          
C216     C      0.199900000000     0.543140000000     0.268350000000     0          
C217     C      0.204600000000     0.505440000000     0.296740000000     0          
H218     H      0.187600000000     0.504700000000     0.324100000000     0          
C219     C      0.131500000000     0.567900000000     0.324400000000     0          
H220     H      0.110900000000     0.593000000000     0.333800000000     0          
H221     H      0.151700000000     0.558100000000     0.349300000000     0          
H222     H      0.111000000000     0.542900000000     0.314600000000     0          
C223     C      0.195300000000     0.624800000000     0.301600000000     0          
H224     H      0.173200000000     0.648600000000     0.311200000000     0          
H225     H      0.216000000000     0.636000000000     0.277600000000     0          
H226     H      0.215600000000     0.615500000000     0.326600000000     0          
C227     C      0.133800000000     0.601300000000     0.248100000000     0          
H228     H      0.113600000000     0.625800000000     0.259500000000     0          
H229     H      0.112900000000     0.577100000000     0.237000000000     0          
H230     H      0.154200000000     0.612500000000     0.224000000000     0          
C231     C      0.300100000000     0.431900000000     0.232900000000     0          
H232     H      0.314300000000     0.437300000000     0.203700000000     0          
H233     H      0.284800000000     0.402200000000     0.233400000000     0          
H234     H      0.325700000000     0.433100000000     0.255500000000     0          
C235     C      0.276070000000     0.507200000000     0.166300000000     0          
C236     C      0.267920000000     0.470280000000     0.137550000000     0          
C237     C      0.295120000000     0.466130000000     0.097880000000     0          
C238     C      0.330480000000     0.498890000000     0.086940000000     0          
H239     H      0.348700000000     0.496100000000     0.060400000000     0          
C240     C      0.338630000000     0.535800000000     0.115690000000     0          
C241     C      0.311420000000     0.539960000000     0.155360000000     0          
C242     C      0.382600000000     0.569900000000     0.105200000000     0          
C243     C      0.419700000000     0.565900000000     0.143200000000     0          
H244     H      0.446800000000     0.586400000000     0.137700000000     0          
H245     H      0.431800000000     0.535000000000     0.144800000000     0          
H246     H      0.404100000000     0.573800000000     0.171300000000     0          
C247     C      0.409300000000     0.559100000000     0.060500000000     0          
H248     H      0.435500000000     0.580900000000     0.055900000000     0          
H249     H      0.386200000000     0.561000000000     0.035900000000     0          
H250     H      0.423000000000     0.528800000000     0.061800000000     0          
C251     C      0.367900000000     0.620900000000     0.104300000000     0          
H252     H      0.396500000000     0.639200000000     0.097700000000     0          
H253     H      0.354700000000     0.629500000000     0.133200000000     0          
H254     H      0.343300000000     0.625700000000     0.081400000000     0          
C255     C      0.224000000000     0.436900000000     0.145800000000     0          
H256     H      0.208900000000     0.443700000000     0.174400000000     0          
H257     H      0.236000000000     0.406000000000     0.146000000000     0          
H258     H      0.200100000000     0.440400000000     0.122100000000     0          
C259     C      0.290500000000     0.425110000000     0.066980000000     0          
C260     C      0.279700000000     0.431390000000     0.021430000000     0          
H261     H      0.275800000000     0.460800000000     0.009900000000     0          
C262     C      0.274900000000     0.393680000000     0.993070000000     0          
H263     H      0.267700000000     0.397900000000     0.962600000000     0          
C264     C      0.280800000000     0.349700000000     0.010250000000     0          
C265     C      0.291500000000     0.343420000000     0.055800000000     0          
H266     H      0.295500000000     0.314000000000     0.067300000000     0          
C267     C      0.296400000000     0.381130000000     0.084160000000     0          
H268     H      0.303600000000     0.376900000000     0.114600000000     0          
C269     C      0.270300000000     0.308200000000     0.979700000000     0          
C270     C      0.790900000000     0.731100000000     0.253000000000     0          
C271     C      0.837830000000     0.744890000000     0.227950000000     0          
C272     C      0.834210000000     0.766820000000     0.186360000000     0          
H273     H      0.803500000000     0.776000000000     0.175500000000     0          
C274     C      0.876550000000     0.775030000000     0.160930000000     0          
H275     H      0.874100000000     0.789700000000     0.133100000000     0          
C276     C      0.922510000000     0.761310000000     0.177100000000     0          
C277     C      0.926130000000     0.739390000000     0.218700000000     0          
H278     H      0.956900000000     0.730200000000     0.229500000000     0          
C279     C      0.883790000000     0.731180000000     0.244120000000     0          
H280     H      0.886200000000     0.716500000000     0.271900000000     0          
C281     C      0.089100000000     0.838200000000     0.158600000000     0          
C282     C      0.968710000000     0.769430000000     0.148240000000     0          
C283     C      0.974980000000     0.747970000000     0.106670000000     0          
C284     C      0.018630000000     0.754030000000     0.082550000000     0          
C285     C      0.056010000000     0.781550000000     0.100000000000     0          
C286     C      0.049750000000     0.803000000000     0.141570000000     0          
C287     C      0.006100000000     0.796940000000     0.165690000000     0          
H288     H      0.001900000000     0.811300000000     0.193500000000     0          
C289     C      0.094100000000     0.876500000000     0.123700000000     0          
H290     H      0.118300000000     0.898200000000     0.133800000000     0          
H291     H      0.062700000000     0.891500000000     0.120100000000     0          
H292     H      0.104300000000     0.863700000000     0.095300000000     0          
C293     C      0.139900000000     0.816200000000     0.168700000000     0          
H294     H      0.162500000000     0.839400000000     0.178900000000     0          
H295     H      0.152600000000     0.802200000000     0.141800000000     0          
H296     H      0.136100000000     0.793400000000     0.191900000000     0          
C297     C      0.072900000000     0.861300000000     0.203200000000     0          
H298     H      0.097800000000     0.882600000000     0.212700000000     0          
H299     H      0.068500000000     0.838300000000     0.226100000000     0          
H300     H      0.042200000000     0.877200000000     0.198500000000     0          
C301     C      0.935700000000     0.712500000000     0.091500000000     0          
H302     H      0.908200000000     0.713300000000     0.112100000000     0          
H303     H      0.950100000000     0.682500000000     0.091500000000     0          
H304     H      0.924400000000     0.720000000000     0.061600000000     0          
C305     C      0.023530000000     0.737900000000     0.034030000000     0          
C306     C      0.989060000000     0.750100000000     0.001300000000     0          
C307     C      0.990500000000     0.729700000000     0.958860000000     0          
C308     C      0.026400000000     0.697100000000     0.949150000000     0          
H309     H      0.027400000000     0.683400000000     0.920800000000     0          
C310     C      0.060900000000     0.684800000000     0.981890000000     0          
C311     C      0.059440000000     0.705300000000     0.024320000000     0          
C312     C      0.094700000000     0.643900000000     0.973200000000     0          
C313     C      0.083700000000     0.617300000000     0.928800000000     0          
H314     H      0.088900000000     0.637100000000     0.903300000000     0          
H315     H      0.050000000000     0.606900000000     0.929000000000     0          
H316     H      0.105500000000     0.591400000000     0.926600000000     0          
C317     C      0.149100000000     0.651200000000     0.976800000000     0          
H318     H      0.156400000000     0.667500000000     0.004200000000     0          
H319     H      0.160300000000     0.668700000000     0.951300000000     0          
H320     H      0.165600000000     0.622100000000     0.977200000000     0          
C321     C      0.084300000000     0.604700000000     0.006200000000     0          
H322     H      0.089200000000     0.615200000000     0.036700000000     0          
H323     H      0.106300000000     0.579700000000     0.000100000000     0          
H324     H      0.050700000000     0.594600000000     0.002700000000     0          
C325     C      0.953100000000     0.790000000000     0.010500000000     0          
H326     H      0.956700000000     0.799900000000     0.041300000000     0          
H327     H      0.919800000000     0.779900000000     0.005400000000     0          
H328     H      0.960600000000     0.815000000000     0.990500000000     0          
C329     C      0.955530000000     0.741500000000     0.922220000000     0          
C330     C      0.972510000000     0.752800000000     0.879290000000     0          
H331     H      0.006300000000     0.754900000000     0.873800000000     0          
C332     C      0.938970000000     0.761100000000     0.844610000000     0          
H333     H      0.950300000000     0.768700000000     0.815900000000     0          
C334     C      0.888450000000     0.758100000000     0.852870000000     0          
C335     C      0.871470000000     0.746800000000     0.895800000000     0          
H336     H      0.837700000000     0.744800000000     0.901300000000     0          
C337     C      0.905010000000     0.738500000000     0.930480000000     0          
H338     H      0.893600000000     0.730900000000     0.959200000000     0          
C339     C      0.850800000000     0.768400000000     0.818100000000     0          
O340     O      0.213600000000     0.811000000000     0.955290000000     0          
O341     O      0.199000000000     0.835400000000     0.888400000000     0          
C342     C      0.222700000000     0.810700000000     0.914600000000     0          
C343     C      0.244800000000     0.766100000000     0.896800000000     0          
H344     H      0.261400000000     0.750400000000     0.921000000000     0          
H345     H      0.268100000000     0.772800000000     0.873200000000     0          
H346     H      0.218900000000     0.747100000000     0.885100000000     0          
O347     O      0.984700000000     0.955000000000     0.122500000000     0          
O348     O      0.924600000000     0.916900000000     0.160600000000     0          
C349     C      0.952400000000     0.925800000000     0.126300000000     0          
C350     C      0.935500000000     0.895600000000     0.086400000000     0          
O351     O      0.050700000000     0.664500000000     0.164400000000     0          
O352     O      0.004200000000     0.650100000000     0.224600000000     0          
C353     C      0.024400000000     0.639600000000     0.188500000000     0          
C354     C      0.016300000000     0.589300000000     0.173100000000     0          
Zr355    Zr     0.194300000000     0.800410000000     0.751750000000     0          
Zr356    Zr     0.262370000000     0.788720000000     0.633130000000     0          
Zr357    Zr     0.273390000000     0.722670000000     0.512000000000     0          
P358     P      0.226940000000     0.887260000000     0.691880000000     0          
P359     P      0.366460000000     0.761970000000     0.568240000000     0          
O360     O      0.241700000000     0.166930000000     0.953390000000     0          
O361     O      0.249000000000     0.218090000000     0.899100000000     0          
O362     O      0.275350000000     0.917940000000     0.701370000000     0          
O363     O      0.182790000000     0.924080000000     0.684530000000     0          
O364     O      0.211500000000     0.862510000000     0.734580000000     0          
O365     O      0.238790000000     0.861410000000     0.650470000000     0          
O366     O      0.226400000000     0.229770000000     0.500550000000     0          
O367     O      0.241170000000     0.185450000000     0.440130000000     0          
O368     O      0.749010000000     0.763980000000     0.731440000000     0          
O369     O      0.705250000000     0.781600000000     0.793350000000     0          
O370     O      0.400200000000     0.717090000000     0.576880000000     0          
O371     O      0.404560000000     0.801750000000     0.556420000000     0          
O372     O      0.337500000000     0.749400000000     0.527360000000     0          
O373     O      0.341420000000     0.778950000000     0.608930000000     0          
O374     O      0.631900000000     0.721200000000     0.278280000000     0          
O375     O      0.691060000000     0.729430000000     0.325160000000     0          
O376     O      0.162200000000     0.809600000000     0.811980000000     0          
C377     C      0.248600000000     0.177700000000     0.912200000000     0          
C378     C      0.254900000000     0.139280000000     0.879680000000     0          
C379     C      0.268400000000     0.148870000000     0.835320000000     0          
H380     H      0.275300000000     0.178800000000     0.826700000000     0          
C381     C      0.271500000000     0.113660000000     0.803800000000     0          
H382     H      0.280500000000     0.120100000000     0.774100000000     0          
C383     C      0.261100000000     0.068870000000     0.816650000000     0          
C384     C      0.247700000000     0.059280000000     0.861020000000     0          
H385     H      0.240800000000     0.029300000000     0.869600000000     0          
C386     C      0.244600000000     0.094490000000     0.892530000000     0          
H387     H      0.235600000000     0.088100000000     0.922200000000     0          
C388     C      0.334800000000     0.916400000000     0.784600000000     0          
C389     C      0.265500000000     0.031140000000     0.784250000000     0          
C390     C      0.240150000000     0.030010000000     0.743360000000     0          
C391     C      0.244770000000     0.992310000000     0.714970000000     0          
C392     C      0.274700000000     0.955730000000     0.727460000000     0          
C393     C      0.300100000000     0.956860000000     0.768350000000     0          
C394     C      0.295400000000     0.994560000000     0.796740000000     0          
H395     H      0.312400000000     0.995300000000     0.824100000000     0          
C396     C      0.368500000000     0.932100000000     0.824400000000     0          
H397     H      0.389100000000     0.907000000000     0.833800000000     0          
H398     H      0.348300000000     0.941900000000     0.849300000000     0          
H399     H      0.389000000000     0.957100000000     0.814600000000     0          
C400     C      0.304700000000     0.875200000000     0.801600000000     0          
H401     H      0.326800000000     0.851400000000     0.811200000000     0          
H402     H      0.284000000000     0.864000000000     0.777600000000     0          
H403     H      0.284400000000     0.884500000000     0.826600000000     0          
C404     C      0.366200000000     0.898700000000     0.748100000000     0          
H405     H      0.386400000000     0.874200000000     0.759500000000     0          
H406     H      0.387100000000     0.922900000000     0.737000000000     0          
H407     H      0.345800000000     0.887500000000     0.724000000000     0          
C408     C      0.199900000000     0.068100000000     0.732900000000     0          
H409     H      0.185700000000     0.062700000000     0.703700000000     0          
H410     H      0.215200000000     0.097800000000     0.733400000000     0          
H411     H      0.174300000000     0.066900000000     0.755500000000     0          
C412     C      0.223930000000     0.992800000000     0.666300000000     0          
C413     C      0.232080000000     0.029720000000     0.637550000000     0          
C414     C      0.204880000000     0.033870000000     0.597880000000     0          
C415     C      0.169520000000     0.001110000000     0.586940000000     0          
H416     H      0.151300000000     0.003900000000     0.560400000000     0          
C417     C      0.161370000000     0.964200000000     0.615690000000     0          
C418     C      0.188580000000     0.960040000000     0.655360000000     0          
C419     C      0.117400000000     0.930100000000     0.605200000000     0          
C420     C      0.080300000000     0.934100000000     0.643200000000     0          
H421     H      0.053200000000     0.913600000000     0.637700000000     0          
H422     H      0.068200000000     0.965000000000     0.644800000000     0          
H423     H      0.095900000000     0.926200000000     0.671300000000     0          
C424     C      0.090700000000     0.940900000000     0.560500000000     0          
H425     H      0.064500000000     0.919100000000     0.555900000000     0          
H426     H      0.113800000000     0.939000000000     0.535900000000     0          
H427     H      0.077000000000     0.971200000000     0.561800000000     0          
C428     C      0.132100000000     0.879100000000     0.604300000000     0          
H429     H      0.103500000000     0.860800000000     0.597700000000     0          
H430     H      0.145300000000     0.870500000000     0.633200000000     0          
H431     H      0.156700000000     0.874300000000     0.581400000000     0          
C432     C      0.276000000000     0.063100000000     0.645800000000     0          
H433     H      0.291100000000     0.056300000000     0.674400000000     0          
H434     H      0.264000000000     0.094000000000     0.646000000000     0          
H435     H      0.299900000000     0.059600000000     0.622100000000     0          
C436     C      0.209500000000     0.074890000000     0.566980000000     0          
C437     C      0.220300000000     0.068610000000     0.521430000000     0          
H438     H      0.224200000000     0.039200000000     0.509900000000     0          
C439     C      0.225100000000     0.106320000000     0.493070000000     0          
H440     H      0.232300000000     0.102100000000     0.462600000000     0          
C441     C      0.219200000000     0.150300000000     0.510250000000     0          
C442     C      0.208500000000     0.156580000000     0.555800000000     0          
H443     H      0.204500000000     0.186000000000     0.567300000000     0          
C444     C      0.203600000000     0.118870000000     0.584160000000     0          
H445     H      0.196400000000     0.123100000000     0.614600000000     0          
C446     C      0.229700000000     0.191800000000     0.479700000000     0          
C447     C      0.709100000000     0.768900000000     0.753000000000     0          
C448     C      0.662170000000     0.755110000000     0.727950000000     0          
C449     C      0.665790000000     0.733180000000     0.686360000000     0          
H450     H      0.696500000000     0.724000000000     0.675500000000     0          
C451     C      0.623450000000     0.724970000000     0.660930000000     0          
H452     H      0.625900000000     0.710300000000     0.633100000000     0          
C453     C      0.577490000000     0.738690000000     0.677100000000     0          
C454     C      0.573870000000     0.760610000000     0.718700000000     0          
H455     H      0.543100000000     0.769800000000     0.729500000000     0          
C456     C      0.616210000000     0.768820000000     0.744120000000     0          
H457     H      0.613800000000     0.783500000000     0.771900000000     0          
C458     C      0.410900000000     0.661800000000     0.658600000000     0          
C459     C      0.531290000000     0.730570000000     0.648240000000     0          
C460     C      0.525020000000     0.752030000000     0.606670000000     0          
C461     C      0.481370000000     0.745970000000     0.582550000000     0          
C462     C      0.443990000000     0.718450000000     0.600000000000     0          
C463     C      0.450250000000     0.697000000000     0.641570000000     0          
C464     C      0.493900000000     0.703060000000     0.665690000000     0          
H465     H      0.498100000000     0.688700000000     0.693500000000     0          
C466     C      0.405900000000     0.623500000000     0.623700000000     0          
H467     H      0.381700000000     0.601800000000     0.633800000000     0          
H468     H      0.437300000000     0.608500000000     0.620100000000     0          
H469     H      0.395700000000     0.636300000000     0.595300000000     0          
C470     C      0.360100000000     0.683800000000     0.668700000000     0          
H471     H      0.337500000000     0.660600000000     0.678900000000     0          
H472     H      0.347400000000     0.697800000000     0.641800000000     0          
H473     H      0.363900000000     0.706600000000     0.691900000000     0          
C474     C      0.427100000000     0.638700000000     0.703200000000     0          
H475     H      0.402200000000     0.617400000000     0.712700000000     0          
H476     H      0.431500000000     0.661700000000     0.726100000000     0          
H477     H      0.457800000000     0.622800000000     0.698500000000     0          
C478     C      0.564300000000     0.787500000000     0.591500000000     0          
H479     H      0.591800000000     0.786700000000     0.612100000000     0          
H480     H      0.549900000000     0.817500000000     0.591500000000     0          
H481     H      0.575600000000     0.780000000000     0.561600000000     0          
C482     C      0.476470000000     0.762100000000     0.534030000000     0          
C483     C      0.510940000000     0.749900000000     0.501300000000     0          
C484     C      0.509500000000     0.770300000000     0.458860000000     0          
C485     C      0.473600000000     0.802900000000     0.449150000000     0          
H486     H      0.472600000000     0.816600000000     0.420800000000     0          
C487     C      0.439100000000     0.815200000000     0.481890000000     0          
C488     C      0.440560000000     0.794700000000     0.524320000000     0          
C489     C      0.405300000000     0.856100000000     0.473200000000     0          
C490     C      0.416300000000     0.882700000000     0.428800000000     0          
H491     H      0.411100000000     0.862900000000     0.403300000000     0          
H492     H      0.450000000000     0.893100000000     0.429000000000     0          
H493     H      0.394500000000     0.908600000000     0.426600000000     0          
C494     C      0.350900000000     0.848800000000     0.476800000000     0          
H495     H      0.343600000000     0.832500000000     0.504200000000     0          
H496     H      0.339700000000     0.831300000000     0.451300000000     0          
H497     H      0.334400000000     0.877900000000     0.477200000000     0          
C498     C      0.415700000000     0.895300000000     0.506200000000     0          
H499     H      0.410800000000     0.884800000000     0.536700000000     0          
H500     H      0.393700000000     0.920300000000     0.500100000000     0          
H501     H      0.449300000000     0.905400000000     0.502700000000     0          
C502     C      0.546900000000     0.710000000000     0.510500000000     0          
H503     H      0.543300000000     0.700100000000     0.541300000000     0          
H504     H      0.580200000000     0.720100000000     0.505400000000     0          
H505     H      0.539400000000     0.685000000000     0.490500000000     0          
C506     C      0.544470000000     0.758500000000     0.422220000000     0          
C507     C      0.527490000000     0.747200000000     0.379290000000     0          
H508     H      0.493700000000     0.745100000000     0.373800000000     0          
C509     C      0.561030000000     0.738900000000     0.344610000000     0          
H510     H      0.549700000000     0.731300000000     0.315900000000     0          
C511     C      0.611550000000     0.741900000000     0.352870000000     0          
C512     C      0.628530000000     0.753200000000     0.395800000000     0          
H513     H      0.662300000000     0.755200000000     0.401300000000     0          
C514     C      0.594990000000     0.761500000000     0.430480000000     0          
H515     H      0.606400000000     0.769100000000     0.459200000000     0          
C516     C      0.649200000000     0.731600000000     0.318100000000     0          
O517     O      0.286400000000     0.689000000000     0.455290000000     0          
O518     O      0.301000000000     0.664600000000     0.388400000000     0          
C519     C      0.277300000000     0.689300000000     0.414600000000     0          
C520     C      0.255200000000     0.733900000000     0.396800000000     0          
H521     H      0.238600000000     0.749600000000     0.421000000000     0          
H522     H      0.231900000000     0.727200000000     0.373200000000     0          
H523     H      0.281100000000     0.752900000000     0.385100000000     0          
O524     O      0.515300000000     0.545000000000     0.622500000000     0          
O525     O      0.575400000000     0.583100000000     0.660600000000     0          
C526     C      0.547600000000     0.574200000000     0.626300000000     0          
C527     C      0.564500000000     0.604400000000     0.586400000000     0          
O528     O      0.449300000000     0.835500000000     0.664400000000     0          
O529     O      0.495800000000     0.849900000000     0.724600000000     0          
C530     C      0.475600000000     0.860400000000     0.688500000000     0          
C531     C      0.483700000000     0.910700000000     0.673100000000     0          
Zr532    Zr     0.694300000000     0.300410000000     0.751750000000     0          
Zr533    Zr     0.762370000000     0.288720000000     0.633130000000     0          
Zr534    Zr     0.773390000000     0.222670000000     0.512000000000     0          
P535     P      0.726940000000     0.387260000000     0.691880000000     0          
P536     P      0.866460000000     0.261970000000     0.568240000000     0          
O537     O      0.741700000000     0.666930000000     0.953390000000     0          
O538     O      0.749000000000     0.718090000000     0.899100000000     0          
O539     O      0.775350000000     0.417940000000     0.701370000000     0          
O540     O      0.682790000000     0.424080000000     0.684530000000     0          
O541     O      0.711500000000     0.362510000000     0.734580000000     0          
O542     O      0.738790000000     0.361410000000     0.650470000000     0          
O543     O      0.726400000000     0.729770000000     0.500550000000     0          
O544     O      0.741170000000     0.685450000000     0.440130000000     0          
O545     O      0.249010000000     0.263980000000     0.731440000000     0          
O546     O      0.205250000000     0.281600000000     0.793350000000     0          
O547     O      0.900200000000     0.217090000000     0.576880000000     0          
O548     O      0.904560000000     0.301750000000     0.556420000000     0          
O549     O      0.837500000000     0.249400000000     0.527360000000     0          
O550     O      0.841420000000     0.278950000000     0.608930000000     0          
O551     O      0.131900000000     0.221200000000     0.278280000000     0          
O552     O      0.191060000000     0.229430000000     0.325160000000     0          
O553     O      0.662200000000     0.309600000000     0.811980000000     0          
C554     C      0.748600000000     0.677700000000     0.912200000000     0          
C555     C      0.754900000000     0.639280000000     0.879680000000     0          
C556     C      0.768400000000     0.648870000000     0.835320000000     0          
H557     H      0.775300000000     0.678800000000     0.826700000000     0          
C558     C      0.771500000000     0.613660000000     0.803800000000     0          
H559     H      0.780500000000     0.620100000000     0.774100000000     0          
C560     C      0.761100000000     0.568870000000     0.816650000000     0          
C561     C      0.747700000000     0.559280000000     0.861020000000     0          
H562     H      0.740800000000     0.529300000000     0.869600000000     0          
C563     C      0.744600000000     0.594490000000     0.892530000000     0          
H564     H      0.735600000000     0.588100000000     0.922200000000     0          
C565     C      0.834800000000     0.416400000000     0.784600000000     0          
C566     C      0.765500000000     0.531140000000     0.784250000000     0          
C567     C      0.740150000000     0.530010000000     0.743360000000     0          
C568     C      0.744770000000     0.492310000000     0.714970000000     0          
C569     C      0.774700000000     0.455730000000     0.727460000000     0          
C570     C      0.800100000000     0.456860000000     0.768350000000     0          
C571     C      0.795400000000     0.494560000000     0.796740000000     0          
H572     H      0.812400000000     0.495300000000     0.824100000000     0          
C573     C      0.868500000000     0.432100000000     0.824400000000     0          
H574     H      0.889100000000     0.407000000000     0.833800000000     0          
H575     H      0.848300000000     0.441900000000     0.849300000000     0          
H576     H      0.889000000000     0.457100000000     0.814600000000     0          
C577     C      0.804700000000     0.375200000000     0.801600000000     0          
H578     H      0.826800000000     0.351400000000     0.811200000000     0          
H579     H      0.784000000000     0.364000000000     0.777600000000     0          
H580     H      0.784400000000     0.384500000000     0.826600000000     0          
C581     C      0.866200000000     0.398700000000     0.748100000000     0          
H582     H      0.886400000000     0.374200000000     0.759500000000     0          
H583     H      0.887100000000     0.422900000000     0.737000000000     0          
H584     H      0.845800000000     0.387500000000     0.724000000000     0          
C585     C      0.699900000000     0.568100000000     0.732900000000     0          
H586     H      0.685700000000     0.562700000000     0.703700000000     0          
H587     H      0.715200000000     0.597800000000     0.733400000000     0          
H588     H      0.674300000000     0.566900000000     0.755500000000     0          
C589     C      0.723930000000     0.492800000000     0.666300000000     0          
C590     C      0.732080000000     0.529720000000     0.637550000000     0          
C591     C      0.704880000000     0.533870000000     0.597880000000     0          
C592     C      0.669520000000     0.501110000000     0.586940000000     0          
H593     H      0.651300000000     0.503900000000     0.560400000000     0          
C594     C      0.661370000000     0.464200000000     0.615690000000     0          
C595     C      0.688580000000     0.460040000000     0.655360000000     0          
C596     C      0.617400000000     0.430100000000     0.605200000000     0          
C597     C      0.580300000000     0.434100000000     0.643200000000     0          
H598     H      0.553200000000     0.413600000000     0.637700000000     0          
H599     H      0.568200000000     0.465000000000     0.644800000000     0          
H600     H      0.595900000000     0.426200000000     0.671300000000     0          
C601     C      0.590700000000     0.440900000000     0.560500000000     0          
H602     H      0.564500000000     0.419100000000     0.555900000000     0          
H603     H      0.613800000000     0.439000000000     0.535900000000     0          
H604     H      0.577000000000     0.471200000000     0.561800000000     0          
C605     C      0.632100000000     0.379100000000     0.604300000000     0          
H606     H      0.603500000000     0.360800000000     0.597700000000     0          
H607     H      0.645300000000     0.370500000000     0.633200000000     0          
H608     H      0.656700000000     0.374300000000     0.581400000000     0          
C609     C      0.776000000000     0.563100000000     0.645800000000     0          
H610     H      0.791100000000     0.556300000000     0.674400000000     0          
H611     H      0.764000000000     0.594000000000     0.646000000000     0          
H612     H      0.799900000000     0.559600000000     0.622100000000     0          
C613     C      0.709500000000     0.574890000000     0.566980000000     0          
C614     C      0.720300000000     0.568610000000     0.521430000000     0          
H615     H      0.724200000000     0.539200000000     0.509900000000     0          
C616     C      0.725100000000     0.606320000000     0.493070000000     0          
H617     H      0.732300000000     0.602100000000     0.462600000000     0          
C618     C      0.719200000000     0.650300000000     0.510250000000     0          
C619     C      0.708500000000     0.656580000000     0.555800000000     0          
H620     H      0.704500000000     0.686000000000     0.567300000000     0          
C621     C      0.703600000000     0.618870000000     0.584160000000     0          
H622     H      0.696400000000     0.623100000000     0.614600000000     0          
C623     C      0.729700000000     0.691800000000     0.479700000000     0          
C624     C      0.209100000000     0.268900000000     0.753000000000     0          
C625     C      0.162170000000     0.255110000000     0.727950000000     0          
C626     C      0.165790000000     0.233180000000     0.686360000000     0          
H627     H      0.196500000000     0.224000000000     0.675500000000     0          
C628     C      0.123450000000     0.224970000000     0.660930000000     0          
H629     H      0.125900000000     0.210300000000     0.633100000000     0          
C630     C      0.077490000000     0.238690000000     0.677100000000     0          
C631     C      0.073870000000     0.260610000000     0.718700000000     0          
H632     H      0.043100000000     0.269800000000     0.729500000000     0          
C633     C      0.116210000000     0.268820000000     0.744120000000     0          
H634     H      0.113800000000     0.283500000000     0.771900000000     0          
C635     C      0.910900000000     0.161800000000     0.658600000000     0          
C636     C      0.031290000000     0.230570000000     0.648240000000     0          
C637     C      0.025020000000     0.252030000000     0.606670000000     0          
C638     C      0.981370000000     0.245970000000     0.582550000000     0          
C639     C      0.943990000000     0.218450000000     0.600000000000     0          
C640     C      0.950250000000     0.197000000000     0.641570000000     0          
C641     C      0.993900000000     0.203060000000     0.665690000000     0          
H642     H      0.998100000000     0.188700000000     0.693500000000     0          
C643     C      0.905900000000     0.123500000000     0.623700000000     0          
H644     H      0.881700000000     0.101800000000     0.633800000000     0          
H645     H      0.937300000000     0.108500000000     0.620100000000     0          
H646     H      0.895700000000     0.136300000000     0.595300000000     0          
C647     C      0.860100000000     0.183800000000     0.668700000000     0          
H648     H      0.837500000000     0.160600000000     0.678900000000     0          
H649     H      0.847400000000     0.197800000000     0.641800000000     0          
H650     H      0.863900000000     0.206600000000     0.691900000000     0          
C651     C      0.927100000000     0.138700000000     0.703200000000     0          
H652     H      0.902200000000     0.117400000000     0.712700000000     0          
H653     H      0.931500000000     0.161700000000     0.726100000000     0          
H654     H      0.957800000000     0.122800000000     0.698500000000     0          
C655     C      0.064300000000     0.287500000000     0.591500000000     0          
H656     H      0.091800000000     0.286700000000     0.612100000000     0          
H657     H      0.049900000000     0.317500000000     0.591500000000     0          
H658     H      0.075600000000     0.280000000000     0.561600000000     0          
C659     C      0.976470000000     0.262100000000     0.534030000000     0          
C660     C      0.010940000000     0.249900000000     0.501300000000     0          
C661     C      0.009500000000     0.270300000000     0.458860000000     0          
C662     C      0.973600000000     0.302900000000     0.449150000000     0          
H663     H      0.972600000000     0.316600000000     0.420800000000     0          
C664     C      0.939100000000     0.315200000000     0.481890000000     0          
C665     C      0.940560000000     0.294700000000     0.524320000000     0          
C666     C      0.905300000000     0.356100000000     0.473200000000     0          
C667     C      0.916300000000     0.382700000000     0.428800000000     0          
H668     H      0.911100000000     0.362900000000     0.403300000000     0          
H669     H      0.950000000000     0.393100000000     0.429000000000     0          
H670     H      0.894500000000     0.408600000000     0.426600000000     0          
C671     C      0.850900000000     0.348800000000     0.476800000000     0          
H672     H      0.843600000000     0.332500000000     0.504200000000     0          
H673     H      0.839700000000     0.331300000000     0.451300000000     0          
H674     H      0.834400000000     0.377900000000     0.477200000000     0          
C675     C      0.915700000000     0.395300000000     0.506200000000     0          
H676     H      0.910800000000     0.384800000000     0.536700000000     0          
H677     H      0.893700000000     0.420300000000     0.500100000000     0          
H678     H      0.949300000000     0.405400000000     0.502700000000     0          
C679     C      0.046900000000     0.210000000000     0.510500000000     0          
H680     H      0.043300000000     0.200100000000     0.541300000000     0          
H681     H      0.080200000000     0.220100000000     0.505400000000     0          
H682     H      0.039400000000     0.185000000000     0.490500000000     0          
C683     C      0.044470000000     0.258500000000     0.422220000000     0          
C684     C      0.027490000000     0.247200000000     0.379290000000     0          
H685     H      0.993700000000     0.245100000000     0.373800000000     0          
C686     C      0.061030000000     0.238900000000     0.344610000000     0          
H687     H      0.049700000000     0.231300000000     0.315900000000     0          
C688     C      0.111550000000     0.241900000000     0.352870000000     0          
C689     C      0.128530000000     0.253200000000     0.395800000000     0          
H690     H      0.162300000000     0.255200000000     0.401300000000     0          
C691     C      0.094990000000     0.261500000000     0.430480000000     0          
H692     H      0.106400000000     0.269100000000     0.459200000000     0          
C693     C      0.149200000000     0.231600000000     0.318100000000     0          
O694     O      0.786400000000     0.189000000000     0.455290000000     0          
O695     O      0.801000000000     0.164600000000     0.388400000000     0          
C696     C      0.777300000000     0.189300000000     0.414600000000     0          
C697     C      0.755200000000     0.233900000000     0.396800000000     0          
H698     H      0.738600000000     0.249600000000     0.421000000000     0          
H699     H      0.731900000000     0.227200000000     0.373200000000     0          
H700     H      0.781100000000     0.252900000000     0.385100000000     0          
O701     O      0.015300000000     0.045000000000     0.622500000000     0          
O702     O      0.075400000000     0.083100000000     0.660600000000     0          
C703     C      0.047600000000     0.074200000000     0.626300000000     0          
C704     C      0.064500000000     0.104400000000     0.586400000000     0          
O705     O      0.949300000000     0.335500000000     0.664400000000     0          
O706     O      0.995800000000     0.349900000000     0.724600000000     0          
C707     C      0.975600000000     0.360400000000     0.688500000000     0          
C708     C      0.983700000000     0.410700000000     0.673100000000     0          
Zr709    Zr     0.194300000000     0.199590000000     0.248250000000     0          
Zr710    Zr     0.262370000000     0.211280000000     0.366870000000     0          
Zr711    Zr     0.273390000000     0.277330000000     0.488000000000     0          
P712     P      0.226940000000     0.112740000000     0.308120000000     0          
P713     P      0.366460000000     0.238030000000     0.431760000000     0          
O714     O      0.241700000000     0.833070000000     0.046610000000     0          
O715     O      0.249000000000     0.781910000000     0.100900000000     0          
O716     O      0.275350000000     0.082060000000     0.298630000000     0          
O717     O      0.182790000000     0.075920000000     0.315470000000     0          
O718     O      0.211500000000     0.137490000000     0.265420000000     0          
O719     O      0.238790000000     0.138590000000     0.349530000000     0          
O720     O      0.226400000000     0.770230000000     0.499450000000     0          
O721     O      0.241170000000     0.814550000000     0.559870000000     0          
O722     O      0.749010000000     0.236020000000     0.268560000000     0          
O723     O      0.705250000000     0.218400000000     0.206650000000     0          
O724     O      0.400200000000     0.282910000000     0.423120000000     0          
O725     O      0.404560000000     0.198250000000     0.443580000000     0          
O726     O      0.337500000000     0.250600000000     0.472640000000     0          
O727     O      0.341420000000     0.221050000000     0.391070000000     0          
O728     O      0.631900000000     0.278800000000     0.721720000000     0          
O729     O      0.691060000000     0.270570000000     0.674840000000     0          
O730     O      0.162200000000     0.190400000000     0.188020000000     0          
C731     C      0.248600000000     0.822300000000     0.087800000000     0          
C732     C      0.254900000000     0.860720000000     0.120320000000     0          
C733     C      0.268400000000     0.851130000000     0.164680000000     0          
H734     H      0.275300000000     0.821200000000     0.173300000000     0          
C735     C      0.271500000000     0.886340000000     0.196200000000     0          
H736     H      0.280500000000     0.879900000000     0.225900000000     0          
C737     C      0.261100000000     0.931130000000     0.183350000000     0          
C738     C      0.247700000000     0.940720000000     0.138980000000     0          
H739     H      0.240800000000     0.970700000000     0.130400000000     0          
C740     C      0.244600000000     0.905510000000     0.107470000000     0          
H741     H      0.235600000000     0.911900000000     0.077800000000     0          
C742     C      0.334800000000     0.083600000000     0.215400000000     0          
C743     C      0.265500000000     0.968860000000     0.215750000000     0          
C744     C      0.240150000000     0.969990000000     0.256640000000     0          
C745     C      0.244770000000     0.007690000000     0.285030000000     0          
C746     C      0.274700000000     0.044270000000     0.272540000000     0          
C747     C      0.300100000000     0.043140000000     0.231650000000     0          
C748     C      0.295400000000     0.005440000000     0.203260000000     0          
H749     H      0.312400000000     0.004700000000     0.175900000000     0          
C750     C      0.368500000000     0.067900000000     0.175600000000     0          
H751     H      0.389100000000     0.093000000000     0.166200000000     0          
H752     H      0.348300000000     0.058100000000     0.150700000000     0          
H753     H      0.389000000000     0.042900000000     0.185400000000     0          
C754     C      0.304700000000     0.124800000000     0.198400000000     0          
H755     H      0.326800000000     0.148600000000     0.188800000000     0          
H756     H      0.284000000000     0.136000000000     0.222400000000     0          
H757     H      0.284400000000     0.115500000000     0.173400000000     0          
C758     C      0.366200000000     0.101300000000     0.251900000000     0          
H759     H      0.386400000000     0.125800000000     0.240500000000     0          
H760     H      0.387100000000     0.077100000000     0.263000000000     0          
H761     H      0.345800000000     0.112500000000     0.276000000000     0          
C762     C      0.199900000000     0.931900000000     0.267100000000     0          
H763     H      0.185700000000     0.937300000000     0.296300000000     0          
H764     H      0.215200000000     0.902200000000     0.266600000000     0          
H765     H      0.174300000000     0.933100000000     0.244500000000     0          
C766     C      0.223930000000     0.007200000000     0.333700000000     0          
C767     C      0.232080000000     0.970280000000     0.362450000000     0          
C768     C      0.204880000000     0.966130000000     0.402120000000     0          
C769     C      0.169520000000     0.998890000000     0.413060000000     0          
H770     H      0.151300000000     0.996100000000     0.439600000000     0          
C771     C      0.161370000000     0.035800000000     0.384310000000     0          
C772     C      0.188580000000     0.039960000000     0.344640000000     0          
C773     C      0.117400000000     0.069900000000     0.394800000000     0          
C774     C      0.080300000000     0.065900000000     0.356800000000     0          
H775     H      0.053200000000     0.086400000000     0.362300000000     0          
H776     H      0.068200000000     0.035000000000     0.355200000000     0          
H777     H      0.095900000000     0.073800000000     0.328700000000     0          
C778     C      0.090700000000     0.059100000000     0.439500000000     0          
H779     H      0.064500000000     0.080900000000     0.444100000000     0          
H780     H      0.113800000000     0.061000000000     0.464100000000     0          
H781     H      0.077000000000     0.028800000000     0.438200000000     0          
C782     C      0.132100000000     0.120900000000     0.395700000000     0          
H783     H      0.103500000000     0.139200000000     0.402300000000     0          
H784     H      0.145300000000     0.129500000000     0.366800000000     0          
H785     H      0.156700000000     0.125700000000     0.418600000000     0          
C786     C      0.276000000000     0.936900000000     0.354200000000     0          
H787     H      0.291100000000     0.943700000000     0.325600000000     0          
H788     H      0.264000000000     0.906000000000     0.354000000000     0          
H789     H      0.299900000000     0.940400000000     0.377900000000     0          
C790     C      0.209500000000     0.925110000000     0.433020000000     0          
C791     C      0.220300000000     0.931390000000     0.478570000000     0          
H792     H      0.224200000000     0.960800000000     0.490100000000     0          
C793     C      0.225100000000     0.893680000000     0.506930000000     0          
H794     H      0.232300000000     0.897900000000     0.537400000000     0          
C795     C      0.219200000000     0.849700000000     0.489750000000     0          
C796     C      0.208500000000     0.843420000000     0.444200000000     0          
H797     H      0.204500000000     0.814000000000     0.432700000000     0          
C798     C      0.203600000000     0.881130000000     0.415840000000     0          
H799     H      0.196400000000     0.876900000000     0.385400000000     0          
C800     C      0.229700000000     0.808200000000     0.520300000000     0          
C801     C      0.709100000000     0.231100000000     0.247000000000     0          
C802     C      0.662170000000     0.244890000000     0.272050000000     0          
C803     C      0.665790000000     0.266820000000     0.313640000000     0          
H804     H      0.696500000000     0.276000000000     0.324500000000     0          
C805     C      0.623450000000     0.275030000000     0.339070000000     0          
H806     H      0.625900000000     0.289700000000     0.366900000000     0          
C807     C      0.577490000000     0.261310000000     0.322900000000     0          
C808     C      0.573870000000     0.239390000000     0.281300000000     0          
H809     H      0.543100000000     0.230200000000     0.270500000000     0          
C810     C      0.616210000000     0.231180000000     0.255880000000     0          
H811     H      0.613800000000     0.216500000000     0.228100000000     0          
C812     C      0.410900000000     0.338200000000     0.341400000000     0          
C813     C      0.531290000000     0.269430000000     0.351760000000     0          
C814     C      0.525020000000     0.247970000000     0.393330000000     0          
C815     C      0.481370000000     0.254030000000     0.417450000000     0          
C816     C      0.443990000000     0.281550000000     0.400000000000     0          
C817     C      0.450250000000     0.303000000000     0.358430000000     0          
C818     C      0.493900000000     0.296940000000     0.334310000000     0          
H819     H      0.498100000000     0.311300000000     0.306500000000     0          
C820     C      0.405900000000     0.376500000000     0.376300000000     0          
H821     H      0.381700000000     0.398200000000     0.366200000000     0          
H822     H      0.437300000000     0.391500000000     0.379900000000     0          
H823     H      0.395700000000     0.363700000000     0.404700000000     0          
C824     C      0.360100000000     0.316200000000     0.331300000000     0          
H825     H      0.337500000000     0.339400000000     0.321100000000     0          
H826     H      0.347400000000     0.302200000000     0.358200000000     0          
H827     H      0.363900000000     0.293400000000     0.308100000000     0          
C828     C      0.427100000000     0.361300000000     0.296800000000     0          
H829     H      0.402200000000     0.382600000000     0.287300000000     0          
H830     H      0.431500000000     0.338300000000     0.273900000000     0          
H831     H      0.457800000000     0.377200000000     0.301500000000     0          
C832     C      0.564300000000     0.212500000000     0.408500000000     0          
H833     H      0.591800000000     0.213300000000     0.387900000000     0          
H834     H      0.549900000000     0.182500000000     0.408500000000     0          
H835     H      0.575600000000     0.220000000000     0.438400000000     0          
C836     C      0.476470000000     0.237900000000     0.465970000000     0          
C837     C      0.510940000000     0.250100000000     0.498700000000     0          
C838     C      0.509500000000     0.229700000000     0.541140000000     0          
C839     C      0.473600000000     0.197100000000     0.550850000000     0          
H840     H      0.472600000000     0.183400000000     0.579200000000     0          
C841     C      0.439100000000     0.184800000000     0.518110000000     0          
C842     C      0.440560000000     0.205300000000     0.475680000000     0          
C843     C      0.405300000000     0.143900000000     0.526800000000     0          
C844     C      0.416300000000     0.117300000000     0.571200000000     0          
H845     H      0.411100000000     0.137100000000     0.596700000000     0          
H846     H      0.450000000000     0.106900000000     0.571000000000     0          
H847     H      0.394500000000     0.091400000000     0.573400000000     0          
C848     C      0.350900000000     0.151200000000     0.523200000000     0          
H849     H      0.343600000000     0.167500000000     0.495800000000     0          
H850     H      0.339700000000     0.168700000000     0.548700000000     0          
H851     H      0.334400000000     0.122100000000     0.522800000000     0          
C852     C      0.415700000000     0.104700000000     0.493800000000     0          
H853     H      0.410800000000     0.115200000000     0.463300000000     0          
H854     H      0.393700000000     0.079700000000     0.499900000000     0          
H855     H      0.449300000000     0.094600000000     0.497300000000     0          
C856     C      0.546900000000     0.290000000000     0.489500000000     0          
H857     H      0.543300000000     0.299900000000     0.458700000000     0          
H858     H      0.580200000000     0.279900000000     0.494600000000     0          
H859     H      0.539400000000     0.315000000000     0.509500000000     0          
C860     C      0.544470000000     0.241500000000     0.577780000000     0          
C861     C      0.527490000000     0.252800000000     0.620710000000     0          
H862     H      0.493700000000     0.254900000000     0.626200000000     0          
C863     C      0.561030000000     0.261100000000     0.655390000000     0          
H864     H      0.549700000000     0.268700000000     0.684100000000     0          
C865     C      0.611550000000     0.258100000000     0.647130000000     0          
C866     C      0.628530000000     0.246800000000     0.604200000000     0          
H867     H      0.662300000000     0.244800000000     0.598700000000     0          
C868     C      0.594990000000     0.238500000000     0.569520000000     0          
H869     H      0.606400000000     0.230900000000     0.540800000000     0          
C870     C      0.649200000000     0.268400000000     0.681900000000     0          
O871     O      0.286400000000     0.311000000000     0.544710000000     0          
O872     O      0.301000000000     0.335400000000     0.611600000000     0          
C873     C      0.277300000000     0.310700000000     0.585400000000     0          
C874     C      0.255200000000     0.266100000000     0.603200000000     0          
H875     H      0.238600000000     0.250400000000     0.579000000000     0          
H876     H      0.231900000000     0.272800000000     0.626800000000     0          
H877     H      0.281100000000     0.247100000000     0.614900000000     0          
O878     O      0.515300000000     0.455000000000     0.377500000000     0          
O879     O      0.575400000000     0.416900000000     0.339400000000     0          
C880     C      0.547600000000     0.425800000000     0.373700000000     0          
C881     C      0.564500000000     0.395600000000     0.413600000000     0          
O882     O      0.449300000000     0.164500000000     0.335600000000     0          
O883     O      0.495800000000     0.150100000000     0.275400000000     0          
C884     C      0.475600000000     0.139600000000     0.311500000000     0          
C885     C      0.483700000000     0.089300000000     0.326900000000     0          
Zr886    Zr     0.694300000000     0.699590000000     0.248250000000     0          
Zr887    Zr     0.762370000000     0.711280000000     0.366870000000     0          
Zr888    Zr     0.773390000000     0.777330000000     0.488000000000     0          
P889     P      0.726940000000     0.612740000000     0.308120000000     0          
P890     P      0.866460000000     0.738030000000     0.431760000000     0          
O891     O      0.741700000000     0.333070000000     0.046610000000     0          
O892     O      0.749000000000     0.281910000000     0.100900000000     0          
O893     O      0.775350000000     0.582060000000     0.298630000000     0          
O894     O      0.682790000000     0.575920000000     0.315470000000     0          
O895     O      0.711500000000     0.637490000000     0.265420000000     0          
O896     O      0.738790000000     0.638590000000     0.349530000000     0          
O897     O      0.726400000000     0.270230000000     0.499450000000     0          
O898     O      0.741170000000     0.314550000000     0.559870000000     0          
O899     O      0.249010000000     0.736020000000     0.268560000000     0          
O900     O      0.205250000000     0.718400000000     0.206650000000     0          
O901     O      0.900200000000     0.782910000000     0.423120000000     0          
O902     O      0.904560000000     0.698250000000     0.443580000000     0          
O903     O      0.837500000000     0.750600000000     0.472640000000     0          
O904     O      0.841420000000     0.721050000000     0.391070000000     0          
O905     O      0.131900000000     0.778800000000     0.721720000000     0          
O906     O      0.191060000000     0.770570000000     0.674840000000     0          
O907     O      0.662200000000     0.690400000000     0.188020000000     0          
C908     C      0.748600000000     0.322300000000     0.087800000000     0          
C909     C      0.754900000000     0.360720000000     0.120320000000     0          
C910     C      0.768400000000     0.351130000000     0.164680000000     0          
H911     H      0.775300000000     0.321200000000     0.173300000000     0          
C912     C      0.771500000000     0.386340000000     0.196200000000     0          
H913     H      0.780500000000     0.379900000000     0.225900000000     0          
C914     C      0.761100000000     0.431130000000     0.183350000000     0          
C915     C      0.747700000000     0.440720000000     0.138980000000     0          
H916     H      0.740800000000     0.470700000000     0.130400000000     0          
C917     C      0.744600000000     0.405510000000     0.107470000000     0          
H918     H      0.735600000000     0.411900000000     0.077800000000     0          
C919     C      0.834800000000     0.583600000000     0.215400000000     0          
C920     C      0.765500000000     0.468860000000     0.215750000000     0          
C921     C      0.740150000000     0.469990000000     0.256640000000     0          
C922     C      0.744770000000     0.507690000000     0.285030000000     0          
C923     C      0.774700000000     0.544270000000     0.272540000000     0          
C924     C      0.800100000000     0.543140000000     0.231650000000     0          
C925     C      0.795400000000     0.505440000000     0.203260000000     0          
H926     H      0.812400000000     0.504700000000     0.175900000000     0          
C927     C      0.868500000000     0.567900000000     0.175600000000     0          
H928     H      0.889100000000     0.593000000000     0.166200000000     0          
H929     H      0.848300000000     0.558100000000     0.150700000000     0          
H930     H      0.889000000000     0.542900000000     0.185400000000     0          
C931     C      0.804700000000     0.624800000000     0.198400000000     0          
H932     H      0.826800000000     0.648600000000     0.188800000000     0          
H933     H      0.784000000000     0.636000000000     0.222400000000     0          
H934     H      0.784400000000     0.615500000000     0.173400000000     0          
C935     C      0.866200000000     0.601300000000     0.251900000000     0          
H936     H      0.886400000000     0.625800000000     0.240500000000     0          
H937     H      0.887100000000     0.577100000000     0.263000000000     0          
H938     H      0.845800000000     0.612500000000     0.276000000000     0          
C939     C      0.699900000000     0.431900000000     0.267100000000     0          
H940     H      0.685700000000     0.437300000000     0.296300000000     0          
H941     H      0.715200000000     0.402200000000     0.266600000000     0          
H942     H      0.674300000000     0.433100000000     0.244500000000     0          
C943     C      0.723930000000     0.507200000000     0.333700000000     0          
C944     C      0.732080000000     0.470280000000     0.362450000000     0          
C945     C      0.704880000000     0.466130000000     0.402120000000     0          
C946     C      0.669520000000     0.498890000000     0.413060000000     0          
H947     H      0.651300000000     0.496100000000     0.439600000000     0          
C948     C      0.661370000000     0.535800000000     0.384310000000     0          
C949     C      0.688580000000     0.539960000000     0.344640000000     0          
C950     C      0.617400000000     0.569900000000     0.394800000000     0          
C951     C      0.580300000000     0.565900000000     0.356800000000     0          
H952     H      0.553200000000     0.586400000000     0.362300000000     0          
H953     H      0.568200000000     0.535000000000     0.355200000000     0          
H954     H      0.595900000000     0.573800000000     0.328700000000     0          
C955     C      0.590700000000     0.559100000000     0.439500000000     0          
H956     H      0.564500000000     0.580900000000     0.444100000000     0          
H957     H      0.613800000000     0.561000000000     0.464100000000     0          
H958     H      0.577000000000     0.528800000000     0.438200000000     0          
C959     C      0.632100000000     0.620900000000     0.395700000000     0          
H960     H      0.603500000000     0.639200000000     0.402300000000     0          
H961     H      0.645300000000     0.629500000000     0.366800000000     0          
H962     H      0.656700000000     0.625700000000     0.418600000000     0          
C963     C      0.776000000000     0.436900000000     0.354200000000     0          
H964     H      0.791100000000     0.443700000000     0.325600000000     0          
H965     H      0.764000000000     0.406000000000     0.354000000000     0          
H966     H      0.799900000000     0.440400000000     0.377900000000     0          
C967     C      0.709500000000     0.425110000000     0.433020000000     0          
C968     C      0.720300000000     0.431390000000     0.478570000000     0          
H969     H      0.724200000000     0.460800000000     0.490100000000     0          
C970     C      0.725100000000     0.393680000000     0.506930000000     0          
H971     H      0.732300000000     0.397900000000     0.537400000000     0          
C972     C      0.719200000000     0.349700000000     0.489750000000     0          
C973     C      0.708500000000     0.343420000000     0.444200000000     0          
H974     H      0.704500000000     0.314000000000     0.432700000000     0          
C975     C      0.703600000000     0.381130000000     0.415840000000     0          
H976     H      0.696400000000     0.376900000000     0.385400000000     0          
C977     C      0.729700000000     0.308200000000     0.520300000000     0          
C978     C      0.209100000000     0.731100000000     0.247000000000     0          
C979     C      0.162170000000     0.744890000000     0.272050000000     0          
C980     C      0.165790000000     0.766820000000     0.313640000000     0          
H981     H      0.196500000000     0.776000000000     0.324500000000     0          
C982     C      0.123450000000     0.775030000000     0.339070000000     0          
H983     H      0.125900000000     0.789700000000     0.366900000000     0          
C984     C      0.077490000000     0.761310000000     0.322900000000     0          
C985     C      0.073870000000     0.739390000000     0.281300000000     0          
H986     H      0.043100000000     0.730200000000     0.270500000000     0          
C987     C      0.116210000000     0.731180000000     0.255880000000     0          
H988     H      0.113800000000     0.716500000000     0.228100000000     0          
C989     C      0.910900000000     0.838200000000     0.341400000000     0          
C990     C      0.031290000000     0.769430000000     0.351760000000     0          
C991     C      0.025020000000     0.747970000000     0.393330000000     0          
C992     C      0.981370000000     0.754030000000     0.417450000000     0          
C993     C      0.943990000000     0.781550000000     0.400000000000     0          
C994     C      0.950250000000     0.803000000000     0.358430000000     0          
C995     C      0.993900000000     0.796940000000     0.334310000000     0          
H996     H      0.998100000000     0.811300000000     0.306500000000     0          
C997     C      0.905900000000     0.876500000000     0.376300000000     0          
H998     H      0.881700000000     0.898200000000     0.366200000000     0          
H999     H      0.937300000000     0.891500000000     0.379900000000     0          
H1000    H      0.895700000000     0.863700000000     0.404700000000     0          
C1001    C      0.860100000000     0.816200000000     0.331300000000     0          
H1002    H      0.837500000000     0.839400000000     0.321100000000     0          
H1003    H      0.847400000000     0.802200000000     0.358200000000     0          
H1004    H      0.863900000000     0.793400000000     0.308100000000     0          
C1005    C      0.927100000000     0.861300000000     0.296800000000     0          
H1006    H      0.902200000000     0.882600000000     0.287300000000     0          
H1007    H      0.931500000000     0.838300000000     0.273900000000     0          
H1008    H      0.957800000000     0.877200000000     0.301500000000     0          
C1009    C      0.064300000000     0.712500000000     0.408500000000     0          
H1010    H      0.091800000000     0.713300000000     0.387900000000     0          
H1011    H      0.049900000000     0.682500000000     0.408500000000     0          
H1012    H      0.075600000000     0.720000000000     0.438400000000     0          
C1013    C      0.976470000000     0.737900000000     0.465970000000     0          
C1014    C      0.010940000000     0.750100000000     0.498700000000     0          
C1015    C      0.009500000000     0.729700000000     0.541140000000     0          
C1016    C      0.973600000000     0.697100000000     0.550850000000     0          
H1017    H      0.972600000000     0.683400000000     0.579200000000     0          
C1018    C      0.939100000000     0.684800000000     0.518110000000     0          
C1019    C      0.940560000000     0.705300000000     0.475680000000     0          
C1020    C      0.905300000000     0.643900000000     0.526800000000     0          
C1021    C      0.916300000000     0.617300000000     0.571200000000     0          
H1022    H      0.911100000000     0.637100000000     0.596700000000     0          
H1023    H      0.950000000000     0.606900000000     0.571000000000     0          
H1024    H      0.894500000000     0.591400000000     0.573400000000     0          
C1025    C      0.850900000000     0.651200000000     0.523200000000     0          
H1026    H      0.843600000000     0.667500000000     0.495800000000     0          
H1027    H      0.839700000000     0.668700000000     0.548700000000     0          
H1028    H      0.834400000000     0.622100000000     0.522800000000     0          
C1029    C      0.915700000000     0.604700000000     0.493800000000     0          
H1030    H      0.910800000000     0.615200000000     0.463300000000     0          
H1031    H      0.893700000000     0.579700000000     0.499900000000     0          
H1032    H      0.949300000000     0.594600000000     0.497300000000     0          
C1033    C      0.046900000000     0.790000000000     0.489500000000     0          
H1034    H      0.043300000000     0.799900000000     0.458700000000     0          
H1035    H      0.080200000000     0.779900000000     0.494600000000     0          
H1036    H      0.039400000000     0.815000000000     0.509500000000     0          
C1037    C      0.044470000000     0.741500000000     0.577780000000     0          
C1038    C      0.027490000000     0.752800000000     0.620710000000     0          
H1039    H      0.993700000000     0.754900000000     0.626200000000     0          
C1040    C      0.061030000000     0.761100000000     0.655390000000     0          
H1041    H      0.049700000000     0.768700000000     0.684100000000     0          
C1042    C      0.111550000000     0.758100000000     0.647130000000     0          
C1043    C      0.128530000000     0.746800000000     0.604200000000     0          
H1044    H      0.162300000000     0.744800000000     0.598700000000     0          
C1045    C      0.094990000000     0.738500000000     0.569520000000     0          
H1046    H      0.106400000000     0.730900000000     0.540800000000     0          
C1047    C      0.149200000000     0.768400000000     0.681900000000     0          
O1048    O      0.786400000000     0.811000000000     0.544710000000     0          
O1049    O      0.801000000000     0.835400000000     0.611600000000     0          
C1050    C      0.777300000000     0.810700000000     0.585400000000     0          
C1051    C      0.755200000000     0.766100000000     0.603200000000     0          
H1052    H      0.738600000000     0.750400000000     0.579000000000     0          
H1053    H      0.731900000000     0.772800000000     0.626800000000     0          
H1054    H      0.781100000000     0.747100000000     0.614900000000     0          
O1055    O      0.015300000000     0.955000000000     0.377500000000     0          
O1056    O      0.075400000000     0.916900000000     0.339400000000     0          
C1057    C      0.047600000000     0.925800000000     0.373700000000     0          
C1058    C      0.064500000000     0.895600000000     0.413600000000     0          
O1059    O      0.949300000000     0.664500000000     0.335600000000     0          
O1060    O      0.995800000000     0.650100000000     0.275400000000     0          
C1061    C      0.975600000000     0.639600000000     0.311500000000     0          
C1062    C      0.983700000000     0.589300000000     0.326900000000     0          
Zr1063   Zr     0.805700000000     0.800410000000     0.748250000000     0          
Zr1064   Zr     0.737630000000     0.788720000000     0.866870000000     0          
Zr1065   Zr     0.726610000000     0.722670000000     0.988000000000     0          
P1066    P      0.773060000000     0.887260000000     0.808120000000     0          
P1067    P      0.633540000000     0.761970000000     0.931760000000     0          
O1068    O      0.758300000000     0.166930000000     0.546610000000     0          
O1069    O      0.751000000000     0.218090000000     0.600900000000     0          
O1070    O      0.724650000000     0.917940000000     0.798630000000     0          
O1071    O      0.817210000000     0.924080000000     0.815470000000     0          
O1072    O      0.788500000000     0.862510000000     0.765420000000     0          
O1073    O      0.761210000000     0.861410000000     0.849530000000     0          
O1074    O      0.773600000000     0.229770000000     0.999450000000     0          
O1075    O      0.758830000000     0.185450000000     0.059870000000     0          
O1076    O      0.250990000000     0.763980000000     0.768560000000     0          
O1077    O      0.294750000000     0.781600000000     0.706650000000     0          
O1078    O      0.599800000000     0.717090000000     0.923120000000     0          
O1079    O      0.595440000000     0.801750000000     0.943580000000     0          
O1080    O      0.662500000000     0.749400000000     0.972640000000     0          
O1081    O      0.658580000000     0.778950000000     0.891070000000     0          
O1082    O      0.368100000000     0.721200000000     0.221720000000     0          
O1083    O      0.308940000000     0.729430000000     0.174840000000     0          
O1084    O      0.837800000000     0.809600000000     0.688020000000     0          
C1085    C      0.751400000000     0.177700000000     0.587800000000     0          
C1086    C      0.745100000000     0.139280000000     0.620320000000     0          
C1087    C      0.731600000000     0.148870000000     0.664680000000     0          
H1088    H      0.724700000000     0.178800000000     0.673300000000     0          
C1089    C      0.728500000000     0.113660000000     0.696200000000     0          
H1090    H      0.719500000000     0.120100000000     0.725900000000     0          
C1091    C      0.738900000000     0.068870000000     0.683350000000     0          
C1092    C      0.752300000000     0.059280000000     0.638980000000     0          
H1093    H      0.759200000000     0.029300000000     0.630400000000     0          
C1094    C      0.755400000000     0.094490000000     0.607470000000     0          
H1095    H      0.764400000000     0.088100000000     0.577800000000     0          
C1096    C      0.665200000000     0.916400000000     0.715400000000     0          
C1097    C      0.734500000000     0.031140000000     0.715750000000     0          
C1098    C      0.759850000000     0.030010000000     0.756640000000     0          
C1099    C      0.755230000000     0.992310000000     0.785030000000     0          
C1100    C      0.725300000000     0.955730000000     0.772540000000     0          
C1101    C      0.699900000000     0.956860000000     0.731650000000     0          
C1102    C      0.704600000000     0.994560000000     0.703260000000     0          
H1103    H      0.687600000000     0.995300000000     0.675900000000     0          
C1104    C      0.631500000000     0.932100000000     0.675600000000     0          
H1105    H      0.610900000000     0.907000000000     0.666200000000     0          
H1106    H      0.651700000000     0.941900000000     0.650700000000     0          
H1107    H      0.611000000000     0.957100000000     0.685400000000     0          
C1108    C      0.695300000000     0.875200000000     0.698400000000     0          
H1109    H      0.673200000000     0.851400000000     0.688800000000     0          
H1110    H      0.716000000000     0.864000000000     0.722400000000     0          
H1111    H      0.715600000000     0.884500000000     0.673400000000     0          
C1112    C      0.633800000000     0.898700000000     0.751900000000     0          
H1113    H      0.613600000000     0.874200000000     0.740500000000     0          
H1114    H      0.612900000000     0.922900000000     0.763000000000     0          
H1115    H      0.654200000000     0.887500000000     0.776000000000     0          
C1116    C      0.800100000000     0.068100000000     0.767100000000     0          
H1117    H      0.814300000000     0.062700000000     0.796300000000     0          
H1118    H      0.784800000000     0.097800000000     0.766600000000     0          
H1119    H      0.825700000000     0.066900000000     0.744500000000     0          
C1120    C      0.776070000000     0.992800000000     0.833700000000     0          
C1121    C      0.767920000000     0.029720000000     0.862450000000     0          
C1122    C      0.795120000000     0.033870000000     0.902120000000     0          
C1123    C      0.830480000000     0.001110000000     0.913060000000     0          
H1124    H      0.848700000000     0.003900000000     0.939600000000     0          
C1125    C      0.838630000000     0.964200000000     0.884310000000     0          
C1126    C      0.811420000000     0.960040000000     0.844640000000     0          
C1127    C      0.882600000000     0.930100000000     0.894800000000     0          
C1128    C      0.919700000000     0.934100000000     0.856800000000     0          
H1129    H      0.946800000000     0.913600000000     0.862300000000     0          
H1130    H      0.931800000000     0.965000000000     0.855200000000     0          
H1131    H      0.904100000000     0.926200000000     0.828700000000     0          
C1132    C      0.909300000000     0.940900000000     0.939500000000     0          
H1133    H      0.935500000000     0.919100000000     0.944100000000     0          
H1134    H      0.886200000000     0.939000000000     0.964100000000     0          
H1135    H      0.923000000000     0.971200000000     0.938200000000     0          
C1136    C      0.867900000000     0.879100000000     0.895700000000     0          
H1137    H      0.896500000000     0.860800000000     0.902300000000     0          
H1138    H      0.854700000000     0.870500000000     0.866800000000     0          
H1139    H      0.843300000000     0.874300000000     0.918600000000     0          
C1140    C      0.724000000000     0.063100000000     0.854200000000     0          
H1141    H      0.708900000000     0.056300000000     0.825600000000     0          
H1142    H      0.736000000000     0.094000000000     0.854000000000     0          
H1143    H      0.700100000000     0.059600000000     0.877900000000     0          
C1144    C      0.790500000000     0.074890000000     0.933020000000     0          
C1145    C      0.779700000000     0.068610000000     0.978570000000     0          
H1146    H      0.775800000000     0.039200000000     0.990100000000     0          
C1147    C      0.774900000000     0.106320000000     0.006930000000     0          
H1148    H      0.767700000000     0.102100000000     0.037400000000     0          
C1149    C      0.780800000000     0.150300000000     0.989750000000     0          
C1150    C      0.791500000000     0.156580000000     0.944200000000     0          
H1151    H      0.795500000000     0.186000000000     0.932700000000     0          
C1152    C      0.796400000000     0.118870000000     0.915840000000     0          
H1153    H      0.803600000000     0.123100000000     0.885400000000     0          
C1154    C      0.770300000000     0.191800000000     0.020300000000     0          
C1155    C      0.290900000000     0.768900000000     0.747000000000     0          
C1156    C      0.337830000000     0.755110000000     0.772050000000     0          
C1157    C      0.334210000000     0.733180000000     0.813640000000     0          
H1158    H      0.303500000000     0.724000000000     0.824500000000     0          
C1159    C      0.376550000000     0.724970000000     0.839070000000     0          
H1160    H      0.374100000000     0.710300000000     0.866900000000     0          
C1161    C      0.422510000000     0.738690000000     0.822900000000     0          
C1162    C      0.426130000000     0.760610000000     0.781300000000     0          
H1163    H      0.456900000000     0.769800000000     0.770500000000     0          
C1164    C      0.383790000000     0.768820000000     0.755880000000     0          
H1165    H      0.386200000000     0.783500000000     0.728100000000     0          
C1166    C      0.589100000000     0.661800000000     0.841400000000     0          
C1167    C      0.468710000000     0.730570000000     0.851760000000     0          
C1168    C      0.474980000000     0.752030000000     0.893330000000     0          
C1169    C      0.518630000000     0.745970000000     0.917450000000     0          
C1170    C      0.556010000000     0.718450000000     0.900000000000     0          
C1171    C      0.549750000000     0.697000000000     0.858430000000     0          
C1172    C      0.506100000000     0.703060000000     0.834310000000     0          
H1173    H      0.501900000000     0.688700000000     0.806500000000     0          
C1174    C      0.594100000000     0.623500000000     0.876300000000     0          
H1175    H      0.618300000000     0.601800000000     0.866200000000     0          
H1176    H      0.562700000000     0.608500000000     0.879900000000     0          
H1177    H      0.604300000000     0.636300000000     0.904700000000     0          
C1178    C      0.639900000000     0.683800000000     0.831300000000     0          
H1179    H      0.662500000000     0.660600000000     0.821100000000     0          
H1180    H      0.652600000000     0.697800000000     0.858200000000     0          
H1181    H      0.636100000000     0.706600000000     0.808100000000     0          
C1182    C      0.572900000000     0.638700000000     0.796800000000     0          
H1183    H      0.597800000000     0.617400000000     0.787300000000     0          
H1184    H      0.568500000000     0.661700000000     0.773900000000     0          
H1185    H      0.542200000000     0.622800000000     0.801500000000     0          
C1186    C      0.435700000000     0.787500000000     0.908500000000     0          
H1187    H      0.408200000000     0.786700000000     0.887900000000     0          
H1188    H      0.450100000000     0.817500000000     0.908500000000     0          
H1189    H      0.424400000000     0.780000000000     0.938400000000     0          
C1190    C      0.523530000000     0.762100000000     0.965970000000     0          
C1191    C      0.489060000000     0.749900000000     0.998700000000     0          
C1192    C      0.490500000000     0.770300000000     0.041140000000     0          
C1193    C      0.526400000000     0.802900000000     0.050850000000     0          
H1194    H      0.527400000000     0.816600000000     0.079200000000     0          
C1195    C      0.560900000000     0.815200000000     0.018110000000     0          
C1196    C      0.559440000000     0.794700000000     0.975680000000     0          
C1197    C      0.594700000000     0.856100000000     0.026800000000     0          
C1198    C      0.583700000000     0.882700000000     0.071200000000     0          
H1199    H      0.588900000000     0.862900000000     0.096700000000     0          
H1200    H      0.550000000000     0.893100000000     0.071000000000     0          
H1201    H      0.605500000000     0.908600000000     0.073400000000     0          
C1202    C      0.649100000000     0.848800000000     0.023200000000     0          
H1203    H      0.656400000000     0.832500000000     0.995800000000     0          
H1204    H      0.660300000000     0.831300000000     0.048700000000     0          
H1205    H      0.665600000000     0.877900000000     0.022800000000     0          
C1206    C      0.584300000000     0.895300000000     0.993800000000     0          
H1207    H      0.589200000000     0.884800000000     0.963300000000     0          
H1208    H      0.606300000000     0.920300000000     0.999900000000     0          
H1209    H      0.550700000000     0.905400000000     0.997300000000     0          
C1210    C      0.453100000000     0.710000000000     0.989500000000     0          
H1211    H      0.456700000000     0.700100000000     0.958700000000     0          
H1212    H      0.419800000000     0.720100000000     0.994600000000     0          
H1213    H      0.460600000000     0.685000000000     0.009500000000     0          
C1214    C      0.455530000000     0.758500000000     0.077780000000     0          
C1215    C      0.472510000000     0.747200000000     0.120710000000     0          
H1216    H      0.506300000000     0.745100000000     0.126200000000     0          
C1217    C      0.438970000000     0.738900000000     0.155390000000     0          
H1218    H      0.450300000000     0.731300000000     0.184100000000     0          
C1219    C      0.388450000000     0.741900000000     0.147130000000     0          
C1220    C      0.371470000000     0.753200000000     0.104200000000     0          
H1221    H      0.337700000000     0.755200000000     0.098700000000     0          
C1222    C      0.405010000000     0.761500000000     0.069520000000     0          
H1223    H      0.393600000000     0.769100000000     0.040800000000     0          
C1224    C      0.350800000000     0.731600000000     0.181900000000     0          
O1225    O      0.713600000000     0.689000000000     0.044710000000     0          
O1226    O      0.699000000000     0.664600000000     0.111600000000     0          
C1227    C      0.722700000000     0.689300000000     0.085400000000     0          
C1228    C      0.744800000000     0.733900000000     0.103200000000     0          
H1229    H      0.761400000000     0.749600000000     0.079000000000     0          
H1230    H      0.768100000000     0.727200000000     0.126800000000     0          
H1231    H      0.718900000000     0.752900000000     0.114900000000     0          
O1232    O      0.484700000000     0.545000000000     0.877500000000     0          
O1233    O      0.424600000000     0.583100000000     0.839400000000     0          
C1234    C      0.452400000000     0.574200000000     0.873700000000     0          
C1235    C      0.435500000000     0.604400000000     0.913600000000     0          
O1236    O      0.550700000000     0.835500000000     0.835600000000     0          
O1237    O      0.504200000000     0.849900000000     0.775400000000     0          
C1238    C      0.524400000000     0.860400000000     0.811500000000     0          
C1239    C      0.516300000000     0.910700000000     0.826900000000     0          
Zr1240   Zr     0.305700000000     0.300410000000     0.748250000000     0          
Zr1241   Zr     0.237630000000     0.288720000000     0.866870000000     0          
Zr1242   Zr     0.226610000000     0.222670000000     0.988000000000     0          
P1243    P      0.273060000000     0.387260000000     0.808120000000     0          
P1244    P      0.133540000000     0.261970000000     0.931760000000     0          
O1245    O      0.258300000000     0.666930000000     0.546610000000     0          
O1246    O      0.251000000000     0.718090000000     0.600900000000     0          
O1247    O      0.224650000000     0.417940000000     0.798630000000     0          
O1248    O      0.317210000000     0.424080000000     0.815470000000     0          
O1249    O      0.288500000000     0.362510000000     0.765420000000     0          
O1250    O      0.261210000000     0.361410000000     0.849530000000     0          
O1251    O      0.273600000000     0.729770000000     0.999450000000     0          
O1252    O      0.258830000000     0.685450000000     0.059870000000     0          
O1253    O      0.750990000000     0.263980000000     0.768560000000     0          
O1254    O      0.794750000000     0.281600000000     0.706650000000     0          
O1255    O      0.099800000000     0.217090000000     0.923120000000     0          
O1256    O      0.095440000000     0.301750000000     0.943580000000     0          
O1257    O      0.162500000000     0.249400000000     0.972640000000     0          
O1258    O      0.158580000000     0.278950000000     0.891070000000     0          
O1259    O      0.868100000000     0.221200000000     0.221720000000     0          
O1260    O      0.808940000000     0.229430000000     0.174840000000     0          
O1261    O      0.337800000000     0.309600000000     0.688020000000     0          
C1262    C      0.251400000000     0.677700000000     0.587800000000     0          
C1263    C      0.245100000000     0.639280000000     0.620320000000     0          
C1264    C      0.231600000000     0.648870000000     0.664680000000     0          
H1265    H      0.224700000000     0.678800000000     0.673300000000     0          
C1266    C      0.228500000000     0.613660000000     0.696200000000     0          
H1267    H      0.219500000000     0.620100000000     0.725900000000     0          
C1268    C      0.238900000000     0.568870000000     0.683350000000     0          
C1269    C      0.252300000000     0.559280000000     0.638980000000     0          
H1270    H      0.259200000000     0.529300000000     0.630400000000     0          
C1271    C      0.255400000000     0.594490000000     0.607470000000     0          
H1272    H      0.264400000000     0.588100000000     0.577800000000     0          
C1273    C      0.165200000000     0.416400000000     0.715400000000     0          
C1274    C      0.234500000000     0.531140000000     0.715750000000     0          
C1275    C      0.259850000000     0.530010000000     0.756640000000     0          
C1276    C      0.255230000000     0.492310000000     0.785030000000     0          
C1277    C      0.225300000000     0.455730000000     0.772540000000     0          
C1278    C      0.199900000000     0.456860000000     0.731650000000     0          
C1279    C      0.204600000000     0.494560000000     0.703260000000     0          
H1280    H      0.187600000000     0.495300000000     0.675900000000     0          
C1281    C      0.131500000000     0.432100000000     0.675600000000     0          
H1282    H      0.110900000000     0.407000000000     0.666200000000     0          
H1283    H      0.151700000000     0.441900000000     0.650700000000     0          
H1284    H      0.111000000000     0.457100000000     0.685400000000     0          
C1285    C      0.195300000000     0.375200000000     0.698400000000     0          
H1286    H      0.173200000000     0.351400000000     0.688800000000     0          
H1287    H      0.216000000000     0.364000000000     0.722400000000     0          
H1288    H      0.215600000000     0.384500000000     0.673400000000     0          
C1289    C      0.133800000000     0.398700000000     0.751900000000     0          
H1290    H      0.113600000000     0.374200000000     0.740500000000     0          
H1291    H      0.112900000000     0.422900000000     0.763000000000     0          
H1292    H      0.154200000000     0.387500000000     0.776000000000     0          
C1293    C      0.300100000000     0.568100000000     0.767100000000     0          
H1294    H      0.314300000000     0.562700000000     0.796300000000     0          
H1295    H      0.284800000000     0.597800000000     0.766600000000     0          
H1296    H      0.325700000000     0.566900000000     0.744500000000     0          
C1297    C      0.276070000000     0.492800000000     0.833700000000     0          
C1298    C      0.267920000000     0.529720000000     0.862450000000     0          
C1299    C      0.295120000000     0.533870000000     0.902120000000     0          
C1300    C      0.330480000000     0.501110000000     0.913060000000     0          
H1301    H      0.348700000000     0.503900000000     0.939600000000     0          
C1302    C      0.338630000000     0.464200000000     0.884310000000     0          
C1303    C      0.311420000000     0.460040000000     0.844640000000     0          
C1304    C      0.382600000000     0.430100000000     0.894800000000     0          
C1305    C      0.419700000000     0.434100000000     0.856800000000     0          
H1306    H      0.446800000000     0.413600000000     0.862300000000     0          
H1307    H      0.431800000000     0.465000000000     0.855200000000     0          
H1308    H      0.404100000000     0.426200000000     0.828700000000     0          
C1309    C      0.409300000000     0.440900000000     0.939500000000     0          
H1310    H      0.435500000000     0.419100000000     0.944100000000     0          
H1311    H      0.386200000000     0.439000000000     0.964100000000     0          
H1312    H      0.423000000000     0.471200000000     0.938200000000     0          
C1313    C      0.367900000000     0.379100000000     0.895700000000     0          
H1314    H      0.396500000000     0.360800000000     0.902300000000     0          
H1315    H      0.354700000000     0.370500000000     0.866800000000     0          
H1316    H      0.343300000000     0.374300000000     0.918600000000     0          
C1317    C      0.224000000000     0.563100000000     0.854200000000     0          
H1318    H      0.208900000000     0.556300000000     0.825600000000     0          
H1319    H      0.236000000000     0.594000000000     0.854000000000     0          
H1320    H      0.200100000000     0.559600000000     0.877900000000     0          
C1321    C      0.290500000000     0.574890000000     0.933020000000     0          
C1322    C      0.279700000000     0.568610000000     0.978570000000     0          
H1323    H      0.275800000000     0.539200000000     0.990100000000     0          
C1324    C      0.274900000000     0.606320000000     0.006930000000     0          
H1325    H      0.267700000000     0.602100000000     0.037400000000     0          
C1326    C      0.280800000000     0.650300000000     0.989750000000     0          
C1327    C      0.291500000000     0.656580000000     0.944200000000     0          
H1328    H      0.295500000000     0.686000000000     0.932700000000     0          
C1329    C      0.296400000000     0.618870000000     0.915840000000     0          
H1330    H      0.303600000000     0.623100000000     0.885400000000     0          
C1331    C      0.270300000000     0.691800000000     0.020300000000     0          
C1332    C      0.790900000000     0.268900000000     0.747000000000     0          
C1333    C      0.837830000000     0.255110000000     0.772050000000     0          
C1334    C      0.834210000000     0.233180000000     0.813640000000     0          
H1335    H      0.803500000000     0.224000000000     0.824500000000     0          
C1336    C      0.876550000000     0.224970000000     0.839070000000     0          
H1337    H      0.874100000000     0.210300000000     0.866900000000     0          
C1338    C      0.922510000000     0.238690000000     0.822900000000     0          
C1339    C      0.926130000000     0.260610000000     0.781300000000     0          
H1340    H      0.956900000000     0.269800000000     0.770500000000     0          
C1341    C      0.883790000000     0.268820000000     0.755880000000     0          
H1342    H      0.886200000000     0.283500000000     0.728100000000     0          
C1343    C      0.089100000000     0.161800000000     0.841400000000     0          
C1344    C      0.968710000000     0.230570000000     0.851760000000     0          
C1345    C      0.974980000000     0.252030000000     0.893330000000     0          
C1346    C      0.018630000000     0.245970000000     0.917450000000     0          
C1347    C      0.056010000000     0.218450000000     0.900000000000     0          
C1348    C      0.049750000000     0.197000000000     0.858430000000     0          
C1349    C      0.006100000000     0.203060000000     0.834310000000     0          
H1350    H      0.001900000000     0.188700000000     0.806500000000     0          
C1351    C      0.094100000000     0.123500000000     0.876300000000     0          
H1352    H      0.118300000000     0.101800000000     0.866200000000     0          
H1353    H      0.062700000000     0.108500000000     0.879900000000     0          
H1354    H      0.104300000000     0.136300000000     0.904700000000     0          
C1355    C      0.139900000000     0.183800000000     0.831300000000     0          
H1356    H      0.162500000000     0.160600000000     0.821100000000     0          
H1357    H      0.152600000000     0.197800000000     0.858200000000     0          
H1358    H      0.136100000000     0.206600000000     0.808100000000     0          
C1359    C      0.072900000000     0.138700000000     0.796800000000     0          
H1360    H      0.097800000000     0.117400000000     0.787300000000     0          
H1361    H      0.068500000000     0.161700000000     0.773900000000     0          
H1362    H      0.042200000000     0.122800000000     0.801500000000     0          
C1363    C      0.935700000000     0.287500000000     0.908500000000     0          
H1364    H      0.908200000000     0.286700000000     0.887900000000     0          
H1365    H      0.950100000000     0.317500000000     0.908500000000     0          
H1366    H      0.924400000000     0.280000000000     0.938400000000     0          
C1367    C      0.023530000000     0.262100000000     0.965970000000     0          
C1368    C      0.989060000000     0.249900000000     0.998700000000     0          
C1369    C      0.990500000000     0.270300000000     0.041140000000     0          
C1370    C      0.026400000000     0.302900000000     0.050850000000     0          
H1371    H      0.027400000000     0.316600000000     0.079200000000     0          
C1372    C      0.060900000000     0.315200000000     0.018110000000     0          
C1373    C      0.059440000000     0.294700000000     0.975680000000     0          
C1374    C      0.094700000000     0.356100000000     0.026800000000     0          
C1375    C      0.083700000000     0.382700000000     0.071200000000     0          
H1376    H      0.088900000000     0.362900000000     0.096700000000     0          
H1377    H      0.050000000000     0.393100000000     0.071000000000     0          
H1378    H      0.105500000000     0.408600000000     0.073400000000     0          
C1379    C      0.149100000000     0.348800000000     0.023200000000     0          
H1380    H      0.156400000000     0.332500000000     0.995800000000     0          
H1381    H      0.160300000000     0.331300000000     0.048700000000     0          
H1382    H      0.165600000000     0.377900000000     0.022800000000     0          
C1383    C      0.084300000000     0.395300000000     0.993800000000     0          
H1384    H      0.089200000000     0.384800000000     0.963300000000     0          
H1385    H      0.106300000000     0.420300000000     0.999900000000     0          
H1386    H      0.050700000000     0.405400000000     0.997300000000     0          
C1387    C      0.953100000000     0.210000000000     0.989500000000     0          
H1388    H      0.956700000000     0.200100000000     0.958700000000     0          
H1389    H      0.919800000000     0.220100000000     0.994600000000     0          
H1390    H      0.960600000000     0.185000000000     0.009500000000     0          
C1391    C      0.955530000000     0.258500000000     0.077780000000     0          
C1392    C      0.972510000000     0.247200000000     0.120710000000     0          
H1393    H      0.006300000000     0.245100000000     0.126200000000     0          
C1394    C      0.938970000000     0.238900000000     0.155390000000     0          
H1395    H      0.950300000000     0.231300000000     0.184100000000     0          
C1396    C      0.888450000000     0.241900000000     0.147130000000     0          
C1397    C      0.871470000000     0.253200000000     0.104200000000     0          
H1398    H      0.837700000000     0.255200000000     0.098700000000     0          
C1399    C      0.905010000000     0.261500000000     0.069520000000     0          
H1400    H      0.893600000000     0.269100000000     0.040800000000     0          
C1401    C      0.850800000000     0.231600000000     0.181900000000     0          
O1402    O      0.213600000000     0.189000000000     0.044710000000     0          
O1403    O      0.199000000000     0.164600000000     0.111600000000     0          
C1404    C      0.222700000000     0.189300000000     0.085400000000     0          
C1405    C      0.244800000000     0.233900000000     0.103200000000     0          
H1406    H      0.261400000000     0.249600000000     0.079000000000     0          
H1407    H      0.268100000000     0.227200000000     0.126800000000     0          
H1408    H      0.218900000000     0.252900000000     0.114900000000     0          
O1409    O      0.984700000000     0.045000000000     0.877500000000     0          
O1410    O      0.924600000000     0.083100000000     0.839400000000     0          
C1411    C      0.952400000000     0.074200000000     0.873700000000     0          
C1412    C      0.935500000000     0.104400000000     0.913600000000     0          
O1413    O      0.050700000000     0.335500000000     0.835600000000     0          
O1414    O      0.004200000000     0.349900000000     0.775400000000     0          
C1415    C      0.024400000000     0.360400000000     0.811500000000     0          
C1416    C      0.016300000000     0.410700000000     0.826900000000     0          


