data_WEYRAW

_audit_creation_method RASPA-1.0
_audit_creation_date 2020-11-2
_audit_author_name 'Rocio Bueno-Perez'

_cell_length_a    44.18
_cell_length_b    24.5834
_cell_length_c    19.4403
_cell_angle_alpha 90
_cell_angle_beta  90
_cell_angle_gamma 90
_cell_volume      21114

_symmetry_cell_setting          triclinic
_symmetry_space_group_name_Hall 'P 1'
_symmetry_space_group_name_H-M  'P 1'
_symmetry_Int_Tables_number     1

_symmetry_equiv_pos_as_xyz 'x,y,z'

loop_
_atom_site_label
_atom_site_type_symbol
_atom_site_fract_x
_atom_site_fract_y
_atom_site_fract_z
_atom_site_charge
Zr1      Zr     0.460230000000     0.040350000000     0.074150000000     0          
C2       C      0.349300000000     0.025000000000     0.051200000000     0          
H3       H      0.359580000000     0.042290000000     0.088090000000     0          
O4       O      0.461400000000     0.041300000000     0.963300000000     0          
C5       C      0.318300000000     0.024900000000     0.048900000000     0          
H6       H      0.307650000000     0.043570000000     0.084090000000     0          
O7       O      0.412040000000     0.026490000000     0.047300000000     0          
O8       O      0.057710000000     0.377990000000     0.950500000000     0          
C9       C      0.220500000000     0.034700000000     0.042100000000     0          
H10      H      0.209580000000     0.058970000000     0.070970000000     0          
O11      O      0.472070000000     0.091700000000     0.162800000000     0          
H12      H      0.462940000000     0.920400000000     0.156300000000     0          
O13      O      0.473300000000     0.898500000000     0.164200000000     0          
C14      C      0.156460000000     0.050000000000     0.001700000000     0          
O15      O      0.031140000000     0.349100000000     0.041600000000     0          
C16      C      0.131000000000     0.054700000000     0.039300000000     0          
H17      H      0.124220000000     0.025260000000     0.067030000000     0          
O18      O      0.439930000000     0.001100000000     0.165200000000     0          
H19      H      0.445940000000     0.020690000000     0.195730000000     0          
C20      C      0.124100000000     0.148100000000     0.003000000000     0          
C21      C      0.105700000000     0.199200000000     0.001200000000     0          
C22      C      0.166800000000     0.095000000000     0.973300000000     0          
H23      H      0.185920000000     0.093810000000     0.950870000000     0          
C24      C      0.151100000000     0.144100000000     0.974500000000     0          
H25      H      0.160060000000     0.175400000000     0.954370000000     0          
C26      C      0.114800000000     0.102500000000     0.037000000000     0          
H27      H      0.095970000000     0.103880000000     0.060590000000     0          
C28      C      0.110600000000     0.238600000000     0.956300000000     0          
H29      H      0.127010000000     0.234890000000     0.925170000000     0          
C30      C      0.092900000000     0.285100000000     0.952300000000     0          
H31      H      0.096970000000     0.311490000000     0.917840000000     0          
C32      C      0.070210000000     0.293100000000     0.996700000000     0          
C33      C      0.063900000000     0.253700000000     0.040300000000     0          
H34      H      0.047120000000     0.257520000000     0.070390000000     0          
C35      C      0.081600000000     0.206100000000     0.043100000000     0          
H36      H      0.076450000000     0.178330000000     0.075070000000     0          
C37      C      0.051320000000     0.343900000000     0.997000000000     0          
C38      C      0.526700000000     0.181800000000     0.250700000000     0          
H39      H      0.546220000000     0.169220000000     0.237390000000     0          
C40      C      0.523500000000     0.224000000000     0.295200000000     0          
H41      H      0.542340000000     0.238440000000     0.309770000000     0          
C42      C      0.252200000000     0.035300000000     0.043400000000     0          
H43      H      0.262710000000     0.059200000000     0.073360000000     0          
Zr44     Zr     0.960230000000     0.540350000000     0.074150000000     0          
C45      C      0.849300000000     0.525000000000     0.051200000000     0          
H46      H      0.859580000000     0.542290000000     0.088090000000     0          
O47      O      0.961400000000     0.541300000000     0.963300000000     0          
C48      C      0.818300000000     0.524900000000     0.048900000000     0          
H49      H      0.807650000000     0.543570000000     0.084090000000     0          
O50      O      0.912040000000     0.526490000000     0.047300000000     0          
O51      O      0.557710000000     0.877990000000     0.950500000000     0          
C52      C      0.720500000000     0.534700000000     0.042100000000     0          
H53      H      0.709580000000     0.558970000000     0.070970000000     0          
O54      O      0.972070000000     0.591700000000     0.162800000000     0          
H55      H      0.962940000000     0.420400000000     0.156300000000     0          
O56      O      0.973300000000     0.398500000000     0.164200000000     0          
C57      C      0.656460000000     0.550000000000     0.001700000000     0          
O58      O      0.531140000000     0.849100000000     0.041600000000     0          
C59      C      0.631000000000     0.554700000000     0.039300000000     0          
H60      H      0.624220000000     0.525260000000     0.067030000000     0          
O61      O      0.939930000000     0.501100000000     0.165200000000     0          
H62      H      0.945940000000     0.520690000000     0.195730000000     0          
C63      C      0.624100000000     0.648100000000     0.003000000000     0          
C64      C      0.605700000000     0.699200000000     0.001200000000     0          
C65      C      0.666800000000     0.595000000000     0.973300000000     0          
H66      H      0.685920000000     0.593810000000     0.950870000000     0          
C67      C      0.651100000000     0.644100000000     0.974500000000     0          
H68      H      0.660060000000     0.675400000000     0.954370000000     0          
C69      C      0.614800000000     0.602500000000     0.037000000000     0          
H70      H      0.595970000000     0.603880000000     0.060590000000     0          
C71      C      0.610600000000     0.738600000000     0.956300000000     0          
H72      H      0.627010000000     0.734890000000     0.925170000000     0          
C73      C      0.592900000000     0.785100000000     0.952300000000     0          
H74      H      0.596970000000     0.811490000000     0.917840000000     0          
C75      C      0.570210000000     0.793100000000     0.996700000000     0          
C76      C      0.563900000000     0.753700000000     0.040300000000     0          
H77      H      0.547120000000     0.757520000000     0.070390000000     0          
C78      C      0.581600000000     0.706100000000     0.043100000000     0          
H79      H      0.576450000000     0.678330000000     0.075070000000     0          
C80      C      0.551320000000     0.843900000000     0.997000000000     0          
C81      C      0.026700000000     0.681800000000     0.250700000000     0          
H82      H      0.046220000000     0.669220000000     0.237390000000     0          
C83      C      0.023500000000     0.724000000000     0.295200000000     0          
H84      H      0.042340000000     0.738440000000     0.309770000000     0          
C85      C      0.752200000000     0.535300000000     0.043400000000     0          
H86      H      0.762710000000     0.559200000000     0.073360000000     0          
Zr87     Zr     0.539770000000     0.459650000000     0.574150000000     0          
C88      C      0.650700000000     0.475000000000     0.551200000000     0          
H89      H      0.640420000000     0.457710000000     0.588090000000     0          
O90      O      0.538600000000     0.458700000000     0.463300000000     0          
C91      C      0.681700000000     0.475100000000     0.548900000000     0          
H92      H      0.692350000000     0.456430000000     0.584090000000     0          
O93      O      0.587960000000     0.473510000000     0.547300000000     0          
O94      O      0.942290000000     0.122010000000     0.450500000000     0          
C95      C      0.779500000000     0.465300000000     0.542100000000     0          
H96      H      0.790420000000     0.441030000000     0.570970000000     0          
O97      O      0.527930000000     0.408300000000     0.662800000000     0          
H98      H      0.537060000000     0.579600000000     0.656300000000     0          
O99      O      0.526700000000     0.601500000000     0.664200000000     0          
C100     C      0.843540000000     0.450000000000     0.501700000000     0          
O101     O      0.968860000000     0.150900000000     0.541600000000     0          
C102     C      0.869000000000     0.445300000000     0.539300000000     0          
H103     H      0.875780000000     0.474740000000     0.567030000000     0          
O104     O      0.560070000000     0.498900000000     0.665200000000     0          
H105     H      0.554060000000     0.479310000000     0.695730000000     0          
C106     C      0.875900000000     0.351900000000     0.503000000000     0          
C107     C      0.894300000000     0.300800000000     0.501200000000     0          
C108     C      0.833200000000     0.405000000000     0.473300000000     0          
H109     H      0.814080000000     0.406190000000     0.450870000000     0          
C110     C      0.848900000000     0.355900000000     0.474500000000     0          
H111     H      0.839940000000     0.324600000000     0.454370000000     0          
C112     C      0.885200000000     0.397500000000     0.537000000000     0          
H113     H      0.904030000000     0.396120000000     0.560590000000     0          
C114     C      0.889400000000     0.261400000000     0.456300000000     0          
H115     H      0.872990000000     0.265110000000     0.425170000000     0          
C116     C      0.907100000000     0.214900000000     0.452300000000     0          
H117     H      0.903030000000     0.188510000000     0.417840000000     0          
C118     C      0.929790000000     0.206900000000     0.496700000000     0          
C119     C      0.936100000000     0.246300000000     0.540300000000     0          
H120     H      0.952880000000     0.242480000000     0.570390000000     0          
C121     C      0.918400000000     0.293900000000     0.543100000000     0          
H122     H      0.923550000000     0.321670000000     0.575070000000     0          
C123     C      0.948680000000     0.156100000000     0.497000000000     0          
C124     C      0.473300000000     0.318200000000     0.750700000000     0          
H125     H      0.453780000000     0.330780000000     0.737390000000     0          
C126     C      0.476500000000     0.276000000000     0.795200000000     0          
H127     H      0.457660000000     0.261560000000     0.809770000000     0          
C128     C      0.747800000000     0.464700000000     0.543400000000     0          
H129     H      0.737290000000     0.440800000000     0.573360000000     0          
Zr130    Zr     0.039770000000     0.959650000000     0.574150000000     0          
C131     C      0.150700000000     0.975000000000     0.551200000000     0          
H132     H      0.140420000000     0.957710000000     0.588090000000     0          
O133     O      0.038600000000     0.958700000000     0.463300000000     0          
C134     C      0.181700000000     0.975100000000     0.548900000000     0          
H135     H      0.192350000000     0.956430000000     0.584090000000     0          
O136     O      0.087960000000     0.973510000000     0.547300000000     0          
O137     O      0.442290000000     0.622010000000     0.450500000000     0          
C138     C      0.279500000000     0.965300000000     0.542100000000     0          
H139     H      0.290420000000     0.941030000000     0.570970000000     0          
O140     O      0.027930000000     0.908300000000     0.662800000000     0          
H141     H      0.037060000000     0.079600000000     0.656300000000     0          
O142     O      0.026700000000     0.101500000000     0.664200000000     0          
C143     C      0.343540000000     0.950000000000     0.501700000000     0          
O144     O      0.468860000000     0.650900000000     0.541600000000     0          
C145     C      0.369000000000     0.945300000000     0.539300000000     0          
H146     H      0.375780000000     0.974740000000     0.567030000000     0          
O147     O      0.060070000000     0.998900000000     0.665200000000     0          
H148     H      0.054060000000     0.979310000000     0.695730000000     0          
C149     C      0.375900000000     0.851900000000     0.503000000000     0          
C150     C      0.394300000000     0.800800000000     0.501200000000     0          
C151     C      0.333200000000     0.905000000000     0.473300000000     0          
H152     H      0.314080000000     0.906190000000     0.450870000000     0          
C153     C      0.348900000000     0.855900000000     0.474500000000     0          
H154     H      0.339940000000     0.824600000000     0.454370000000     0          
C155     C      0.385200000000     0.897500000000     0.537000000000     0          
H156     H      0.404030000000     0.896120000000     0.560590000000     0          
C157     C      0.389400000000     0.761400000000     0.456300000000     0          
H158     H      0.372990000000     0.765110000000     0.425170000000     0          
C159     C      0.407100000000     0.714900000000     0.452300000000     0          
H160     H      0.403030000000     0.688510000000     0.417840000000     0          
C161     C      0.429790000000     0.706900000000     0.496700000000     0          
C162     C      0.436100000000     0.746300000000     0.540300000000     0          
H163     H      0.452880000000     0.742480000000     0.570390000000     0          
C164     C      0.418400000000     0.793900000000     0.543100000000     0          
H165     H      0.423550000000     0.821670000000     0.575070000000     0          
C166     C      0.448680000000     0.656100000000     0.497000000000     0          
C167     C      0.973300000000     0.818200000000     0.750700000000     0          
H168     H      0.953780000000     0.830780000000     0.737390000000     0          
C169     C      0.976500000000     0.776000000000     0.795200000000     0          
H170     H      0.957660000000     0.761560000000     0.809770000000     0          
C171     C      0.247800000000     0.964700000000     0.543400000000     0          
H172     H      0.237290000000     0.940800000000     0.573360000000     0          
Zr173    Zr     0.539770000000     0.540350000000     0.425850000000     0          
C174     C      0.650700000000     0.525000000000     0.448800000000     0          
H175     H      0.640420000000     0.542290000000     0.411910000000     0          
O176     O      0.538600000000     0.541300000000     0.536700000000     0          
C177     C      0.681700000000     0.524900000000     0.451100000000     0          
H178     H      0.692350000000     0.543570000000     0.415910000000     0          
O179     O      0.587960000000     0.526490000000     0.452700000000     0          
O180     O      0.942290000000     0.877990000000     0.549500000000     0          
C181     C      0.779500000000     0.534700000000     0.457900000000     0          
H182     H      0.790420000000     0.558970000000     0.429030000000     0          
O183     O      0.527930000000     0.591700000000     0.337200000000     0          
H184     H      0.537060000000     0.420400000000     0.343700000000     0          
O185     O      0.526700000000     0.398500000000     0.335800000000     0          
C186     C      0.843540000000     0.550000000000     0.498300000000     0          
O187     O      0.968860000000     0.849100000000     0.458400000000     0          
C188     C      0.869000000000     0.554700000000     0.460700000000     0          
H189     H      0.875780000000     0.525260000000     0.432970000000     0          
O190     O      0.560070000000     0.501100000000     0.334800000000     0          
H191     H      0.554060000000     0.520690000000     0.304270000000     0          
C192     C      0.875900000000     0.648100000000     0.497000000000     0          
C193     C      0.894300000000     0.699200000000     0.498800000000     0          
C194     C      0.833200000000     0.595000000000     0.526700000000     0          
H195     H      0.814080000000     0.593810000000     0.549130000000     0          
C196     C      0.848900000000     0.644100000000     0.525500000000     0          
H197     H      0.839940000000     0.675400000000     0.545630000000     0          
C198     C      0.885200000000     0.602500000000     0.463000000000     0          
H199     H      0.904030000000     0.603880000000     0.439410000000     0          
C200     C      0.889400000000     0.738600000000     0.543700000000     0          
H201     H      0.872990000000     0.734890000000     0.574830000000     0          
C202     C      0.907100000000     0.785100000000     0.547700000000     0          
H203     H      0.903030000000     0.811490000000     0.582160000000     0          
C204     C      0.929790000000     0.793100000000     0.503300000000     0          
C205     C      0.936100000000     0.753700000000     0.459700000000     0          
H206     H      0.952880000000     0.757520000000     0.429610000000     0          
C207     C      0.918400000000     0.706100000000     0.456900000000     0          
H208     H      0.923550000000     0.678330000000     0.424930000000     0          
C209     C      0.948680000000     0.843900000000     0.503000000000     0          
C210     C      0.473300000000     0.681800000000     0.249300000000     0          
H211     H      0.453780000000     0.669220000000     0.262610000000     0          
C212     C      0.476500000000     0.724000000000     0.204800000000     0          
H213     H      0.457660000000     0.738440000000     0.190230000000     0          
C214     C      0.747800000000     0.535300000000     0.456600000000     0          
H215     H      0.737290000000     0.559200000000     0.426640000000     0          
Zr216    Zr     0.039770000000     0.040350000000     0.425850000000     0          
C217     C      0.150700000000     0.025000000000     0.448800000000     0          
H218     H      0.140420000000     0.042290000000     0.411910000000     0          
O219     O      0.038600000000     0.041300000000     0.536700000000     0          
C220     C      0.181700000000     0.024900000000     0.451100000000     0          
H221     H      0.192350000000     0.043570000000     0.415910000000     0          
O222     O      0.087960000000     0.026490000000     0.452700000000     0          
O223     O      0.442290000000     0.377990000000     0.549500000000     0          
C224     C      0.279500000000     0.034700000000     0.457900000000     0          
H225     H      0.290420000000     0.058970000000     0.429030000000     0          
O226     O      0.027930000000     0.091700000000     0.337200000000     0          
H227     H      0.037060000000     0.920400000000     0.343700000000     0          
O228     O      0.026700000000     0.898500000000     0.335800000000     0          
C229     C      0.343540000000     0.050000000000     0.498300000000     0          
O230     O      0.468860000000     0.349100000000     0.458400000000     0          
C231     C      0.369000000000     0.054700000000     0.460700000000     0          
H232     H      0.375780000000     0.025260000000     0.432970000000     0          
O233     O      0.060070000000     0.001100000000     0.334800000000     0          
H234     H      0.054060000000     0.020690000000     0.304270000000     0          
C235     C      0.375900000000     0.148100000000     0.497000000000     0          
C236     C      0.394300000000     0.199200000000     0.498800000000     0          
C237     C      0.333200000000     0.095000000000     0.526700000000     0          
H238     H      0.314080000000     0.093810000000     0.549130000000     0          
C239     C      0.348900000000     0.144100000000     0.525500000000     0          
H240     H      0.339940000000     0.175400000000     0.545630000000     0          
C241     C      0.385200000000     0.102500000000     0.463000000000     0          
H242     H      0.404030000000     0.103880000000     0.439410000000     0          
C243     C      0.389400000000     0.238600000000     0.543700000000     0          
H244     H      0.372990000000     0.234890000000     0.574830000000     0          
C245     C      0.407100000000     0.285100000000     0.547700000000     0          
H246     H      0.403030000000     0.311490000000     0.582160000000     0          
C247     C      0.429790000000     0.293100000000     0.503300000000     0          
C248     C      0.436100000000     0.253700000000     0.459700000000     0          
H249     H      0.452880000000     0.257520000000     0.429610000000     0          
C250     C      0.418400000000     0.206100000000     0.456900000000     0          
H251     H      0.423550000000     0.178330000000     0.424930000000     0          
C252     C      0.448680000000     0.343900000000     0.503000000000     0          
C253     C      0.973300000000     0.181800000000     0.249300000000     0          
H254     H      0.953780000000     0.169220000000     0.262610000000     0          
C255     C      0.976500000000     0.224000000000     0.204800000000     0          
H256     H      0.957660000000     0.238440000000     0.190230000000     0          
C257     C      0.247800000000     0.035300000000     0.456600000000     0          
H258     H      0.237290000000     0.059200000000     0.426640000000     0          
Zr259    Zr     0.460230000000     0.959650000000     0.925850000000     0          
C260     C      0.349300000000     0.975000000000     0.948800000000     0          
H261     H      0.359580000000     0.957710000000     0.911910000000     0          
O262     O      0.461400000000     0.958700000000     0.036700000000     0          
C263     C      0.318300000000     0.975100000000     0.951100000000     0          
H264     H      0.307650000000     0.956430000000     0.915910000000     0          
O265     O      0.412040000000     0.973510000000     0.952700000000     0          
O266     O      0.057710000000     0.622010000000     0.049500000000     0          
C267     C      0.220500000000     0.965300000000     0.957900000000     0          
H268     H      0.209580000000     0.941030000000     0.929030000000     0          
O269     O      0.472070000000     0.908300000000     0.837200000000     0          
H270     H      0.462940000000     0.079600000000     0.843700000000     0          
O271     O      0.473300000000     0.101500000000     0.835800000000     0          
C272     C      0.156460000000     0.950000000000     0.998300000000     0          
O273     O      0.031140000000     0.650900000000     0.958400000000     0          
C274     C      0.131000000000     0.945300000000     0.960700000000     0          
H275     H      0.124220000000     0.974740000000     0.932970000000     0          
O276     O      0.439930000000     0.998900000000     0.834800000000     0          
H277     H      0.445940000000     0.979310000000     0.804270000000     0          
C278     C      0.124100000000     0.851900000000     0.997000000000     0          
C279     C      0.105700000000     0.800800000000     0.998800000000     0          
C280     C      0.166800000000     0.905000000000     0.026700000000     0          
H281     H      0.185920000000     0.906190000000     0.049130000000     0          
C282     C      0.151100000000     0.855900000000     0.025500000000     0          
H283     H      0.160060000000     0.824600000000     0.045630000000     0          
C284     C      0.114800000000     0.897500000000     0.963000000000     0          
H285     H      0.095970000000     0.896120000000     0.939410000000     0          
C286     C      0.110600000000     0.761400000000     0.043700000000     0          
H287     H      0.127010000000     0.765110000000     0.074830000000     0          
C288     C      0.092900000000     0.714900000000     0.047700000000     0          
H289     H      0.096970000000     0.688510000000     0.082160000000     0          
C290     C      0.070210000000     0.706900000000     0.003300000000     0          
C291     C      0.063900000000     0.746300000000     0.959700000000     0          
H292     H      0.047120000000     0.742480000000     0.929610000000     0          
C293     C      0.081600000000     0.793900000000     0.956900000000     0          
H294     H      0.076450000000     0.821670000000     0.924930000000     0          
C295     C      0.051320000000     0.656100000000     0.003000000000     0          
C296     C      0.526700000000     0.818200000000     0.749300000000     0          
H297     H      0.546220000000     0.830780000000     0.762610000000     0          
C298     C      0.523500000000     0.776000000000     0.704800000000     0          
H299     H      0.542340000000     0.761560000000     0.690230000000     0          
C300     C      0.252200000000     0.964700000000     0.956600000000     0          
H301     H      0.262710000000     0.940800000000     0.926640000000     0          
Zr302    Zr     0.960230000000     0.459650000000     0.925850000000     0          
C303     C      0.849300000000     0.475000000000     0.948800000000     0          
H304     H      0.859580000000     0.457710000000     0.911910000000     0          
O305     O      0.961400000000     0.458700000000     0.036700000000     0          
C306     C      0.818300000000     0.475100000000     0.951100000000     0          
H307     H      0.807650000000     0.456430000000     0.915910000000     0          
O308     O      0.912040000000     0.473510000000     0.952700000000     0          
O309     O      0.557710000000     0.122010000000     0.049500000000     0          
C310     C      0.720500000000     0.465300000000     0.957900000000     0          
H311     H      0.709580000000     0.441030000000     0.929030000000     0          
O312     O      0.972070000000     0.408300000000     0.837200000000     0          
H313     H      0.962940000000     0.579600000000     0.843700000000     0          
O314     O      0.973300000000     0.601500000000     0.835800000000     0          
C315     C      0.656460000000     0.450000000000     0.998300000000     0          
O316     O      0.531140000000     0.150900000000     0.958400000000     0          
C317     C      0.631000000000     0.445300000000     0.960700000000     0          
H318     H      0.624220000000     0.474740000000     0.932970000000     0          
O319     O      0.939930000000     0.498900000000     0.834800000000     0          
H320     H      0.945940000000     0.479310000000     0.804270000000     0          
C321     C      0.624100000000     0.351900000000     0.997000000000     0          
C322     C      0.605700000000     0.300800000000     0.998800000000     0          
C323     C      0.666800000000     0.405000000000     0.026700000000     0          
H324     H      0.685920000000     0.406190000000     0.049130000000     0          
C325     C      0.651100000000     0.355900000000     0.025500000000     0          
H326     H      0.660060000000     0.324600000000     0.045630000000     0          
C327     C      0.614800000000     0.397500000000     0.963000000000     0          
H328     H      0.595970000000     0.396120000000     0.939410000000     0          
C329     C      0.610600000000     0.261400000000     0.043700000000     0          
H330     H      0.627010000000     0.265110000000     0.074830000000     0          
C331     C      0.592900000000     0.214900000000     0.047700000000     0          
H332     H      0.596970000000     0.188510000000     0.082160000000     0          
C333     C      0.570210000000     0.206900000000     0.003300000000     0          
C334     C      0.563900000000     0.246300000000     0.959700000000     0          
H335     H      0.547120000000     0.242480000000     0.929610000000     0          
C336     C      0.581600000000     0.293900000000     0.956900000000     0          
H337     H      0.576450000000     0.321670000000     0.924930000000     0          
C338     C      0.551320000000     0.156100000000     0.003000000000     0          
C339     C      0.026700000000     0.318200000000     0.749300000000     0          
H340     H      0.046220000000     0.330780000000     0.762610000000     0          
C341     C      0.023500000000     0.276000000000     0.704800000000     0          
H342     H      0.042340000000     0.261560000000     0.690230000000     0          
C343     C      0.752200000000     0.464700000000     0.956600000000     0          
H344     H      0.762710000000     0.440800000000     0.926640000000     0          
Zr345    Zr     0.539770000000     0.959650000000     0.925850000000     0          
C346     C      0.650700000000     0.975000000000     0.948800000000     0          
H347     H      0.640420000000     0.957710000000     0.911910000000     0          
O348     O      0.538600000000     0.958700000000     0.036700000000     0          
C349     C      0.681700000000     0.975100000000     0.951100000000     0          
H350     H      0.692350000000     0.956430000000     0.915910000000     0          
O351     O      0.587960000000     0.973510000000     0.952700000000     0          
O352     O      0.942290000000     0.622010000000     0.049500000000     0          
C353     C      0.779500000000     0.965300000000     0.957900000000     0          
H354     H      0.790420000000     0.941030000000     0.929030000000     0          
O355     O      0.527930000000     0.908300000000     0.837200000000     0          
H356     H      0.537060000000     0.079600000000     0.843700000000     0          
O357     O      0.526700000000     0.101500000000     0.835800000000     0          
C358     C      0.843540000000     0.950000000000     0.998300000000     0          
O359     O      0.968860000000     0.650900000000     0.958400000000     0          
C360     C      0.869000000000     0.945300000000     0.960700000000     0          
H361     H      0.875780000000     0.974740000000     0.932970000000     0          
O362     O      0.560070000000     0.998900000000     0.834800000000     0          
H363     H      0.554060000000     0.979310000000     0.804270000000     0          
C364     C      0.875900000000     0.851900000000     0.997000000000     0          
C365     C      0.894300000000     0.800800000000     0.998800000000     0          
C366     C      0.833200000000     0.905000000000     0.026700000000     0          
H367     H      0.814080000000     0.906190000000     0.049130000000     0          
C368     C      0.848900000000     0.855900000000     0.025500000000     0          
H369     H      0.839940000000     0.824600000000     0.045630000000     0          
C370     C      0.885200000000     0.897500000000     0.963000000000     0          
H371     H      0.904030000000     0.896120000000     0.939410000000     0          
C372     C      0.889400000000     0.761400000000     0.043700000000     0          
H373     H      0.872990000000     0.765110000000     0.074830000000     0          
C374     C      0.907100000000     0.714900000000     0.047700000000     0          
H375     H      0.903030000000     0.688510000000     0.082160000000     0          
C376     C      0.929790000000     0.706900000000     0.003300000000     0          
C377     C      0.936100000000     0.746300000000     0.959700000000     0          
H378     H      0.952880000000     0.742480000000     0.929610000000     0          
C379     C      0.918400000000     0.793900000000     0.956900000000     0          
H380     H      0.923550000000     0.821670000000     0.924930000000     0          
C381     C      0.948680000000     0.656100000000     0.003000000000     0          
C382     C      0.473300000000     0.818200000000     0.749300000000     0          
H383     H      0.453780000000     0.830780000000     0.762610000000     0          
C384     C      0.476500000000     0.776000000000     0.704800000000     0          
H385     H      0.457660000000     0.761560000000     0.690230000000     0          
C386     C      0.747800000000     0.964700000000     0.956600000000     0          
H387     H      0.737290000000     0.940800000000     0.926640000000     0          
Zr388    Zr     0.039770000000     0.459650000000     0.925850000000     0          
C389     C      0.150700000000     0.475000000000     0.948800000000     0          
H390     H      0.140420000000     0.457710000000     0.911910000000     0          
O391     O      0.038600000000     0.458700000000     0.036700000000     0          
C392     C      0.181700000000     0.475100000000     0.951100000000     0          
H393     H      0.192350000000     0.456430000000     0.915910000000     0          
O394     O      0.087960000000     0.473510000000     0.952700000000     0          
O395     O      0.442290000000     0.122010000000     0.049500000000     0          
C396     C      0.279500000000     0.465300000000     0.957900000000     0          
H397     H      0.290420000000     0.441030000000     0.929030000000     0          
O398     O      0.027930000000     0.408300000000     0.837200000000     0          
H399     H      0.037060000000     0.579600000000     0.843700000000     0          
O400     O      0.026700000000     0.601500000000     0.835800000000     0          
C401     C      0.343540000000     0.450000000000     0.998300000000     0          
O402     O      0.468860000000     0.150900000000     0.958400000000     0          
C403     C      0.369000000000     0.445300000000     0.960700000000     0          
H404     H      0.375780000000     0.474740000000     0.932970000000     0          
O405     O      0.060070000000     0.498900000000     0.834800000000     0          
H406     H      0.054060000000     0.479310000000     0.804270000000     0          
C407     C      0.375900000000     0.351900000000     0.997000000000     0          
C408     C      0.394300000000     0.300800000000     0.998800000000     0          
C409     C      0.333200000000     0.405000000000     0.026700000000     0          
H410     H      0.314080000000     0.406190000000     0.049130000000     0          
C411     C      0.348900000000     0.355900000000     0.025500000000     0          
H412     H      0.339940000000     0.324600000000     0.045630000000     0          
C413     C      0.385200000000     0.397500000000     0.963000000000     0          
H414     H      0.404030000000     0.396120000000     0.939410000000     0          
C415     C      0.389400000000     0.261400000000     0.043700000000     0          
H416     H      0.372990000000     0.265110000000     0.074830000000     0          
C417     C      0.407100000000     0.214900000000     0.047700000000     0          
H418     H      0.403030000000     0.188510000000     0.082160000000     0          
C419     C      0.429790000000     0.206900000000     0.003300000000     0          
C420     C      0.436100000000     0.246300000000     0.959700000000     0          
H421     H      0.452880000000     0.242480000000     0.929610000000     0          
C422     C      0.418400000000     0.293900000000     0.956900000000     0          
H423     H      0.423550000000     0.321670000000     0.924930000000     0          
C424     C      0.448680000000     0.156100000000     0.003000000000     0          
C425     C      0.973300000000     0.318200000000     0.749300000000     0          
H426     H      0.953780000000     0.330780000000     0.762610000000     0          
C427     C      0.976500000000     0.276000000000     0.704800000000     0          
H428     H      0.957660000000     0.261560000000     0.690230000000     0          
C429     C      0.247800000000     0.464700000000     0.956600000000     0          
H430     H      0.237290000000     0.440800000000     0.926640000000     0          
Zr431    Zr     0.460230000000     0.540350000000     0.425850000000     0          
C432     C      0.349300000000     0.525000000000     0.448800000000     0          
H433     H      0.359580000000     0.542290000000     0.411910000000     0          
O434     O      0.461400000000     0.541300000000     0.536700000000     0          
C435     C      0.318300000000     0.524900000000     0.451100000000     0          
H436     H      0.307650000000     0.543570000000     0.415910000000     0          
O437     O      0.412040000000     0.526490000000     0.452700000000     0          
O438     O      0.057710000000     0.877990000000     0.549500000000     0          
C439     C      0.220500000000     0.534700000000     0.457900000000     0          
H440     H      0.209580000000     0.558970000000     0.429030000000     0          
O441     O      0.472070000000     0.591700000000     0.337200000000     0          
H442     H      0.462940000000     0.420400000000     0.343700000000     0          
O443     O      0.473300000000     0.398500000000     0.335800000000     0          
C444     C      0.156460000000     0.550000000000     0.498300000000     0          
O445     O      0.031140000000     0.849100000000     0.458400000000     0          
C446     C      0.131000000000     0.554700000000     0.460700000000     0          
H447     H      0.124220000000     0.525260000000     0.432970000000     0          
O448     O      0.439930000000     0.501100000000     0.334800000000     0          
H449     H      0.445940000000     0.520690000000     0.304270000000     0          
C450     C      0.124100000000     0.648100000000     0.497000000000     0          
C451     C      0.105700000000     0.699200000000     0.498800000000     0          
C452     C      0.166800000000     0.595000000000     0.526700000000     0          
H453     H      0.185920000000     0.593810000000     0.549130000000     0          
C454     C      0.151100000000     0.644100000000     0.525500000000     0          
H455     H      0.160060000000     0.675400000000     0.545630000000     0          
C456     C      0.114800000000     0.602500000000     0.463000000000     0          
H457     H      0.095970000000     0.603880000000     0.439410000000     0          
C458     C      0.110600000000     0.738600000000     0.543700000000     0          
H459     H      0.127010000000     0.734890000000     0.574830000000     0          
C460     C      0.092900000000     0.785100000000     0.547700000000     0          
H461     H      0.096970000000     0.811490000000     0.582160000000     0          
C462     C      0.070210000000     0.793100000000     0.503300000000     0          
C463     C      0.063900000000     0.753700000000     0.459700000000     0          
H464     H      0.047120000000     0.757520000000     0.429610000000     0          
C465     C      0.081600000000     0.706100000000     0.456900000000     0          
H466     H      0.076450000000     0.678330000000     0.424930000000     0          
C467     C      0.051320000000     0.843900000000     0.503000000000     0          
C468     C      0.526700000000     0.681800000000     0.249300000000     0          
H469     H      0.546220000000     0.669220000000     0.262610000000     0          
C470     C      0.523500000000     0.724000000000     0.204800000000     0          
H471     H      0.542340000000     0.738440000000     0.190230000000     0          
C472     C      0.252200000000     0.535300000000     0.456600000000     0          
H473     H      0.262710000000     0.559200000000     0.426640000000     0          
Zr474    Zr     0.960230000000     0.040350000000     0.425850000000     0          
C475     C      0.849300000000     0.025000000000     0.448800000000     0          
H476     H      0.859580000000     0.042290000000     0.411910000000     0          
O477     O      0.961400000000     0.041300000000     0.536700000000     0          
C478     C      0.818300000000     0.024900000000     0.451100000000     0          
H479     H      0.807650000000     0.043570000000     0.415910000000     0          
O480     O      0.912040000000     0.026490000000     0.452700000000     0          
O481     O      0.557710000000     0.377990000000     0.549500000000     0          
C482     C      0.720500000000     0.034700000000     0.457900000000     0          
H483     H      0.709580000000     0.058970000000     0.429030000000     0          
O484     O      0.972070000000     0.091700000000     0.337200000000     0          
H485     H      0.962940000000     0.920400000000     0.343700000000     0          
O486     O      0.973300000000     0.898500000000     0.335800000000     0          
C487     C      0.656460000000     0.050000000000     0.498300000000     0          
O488     O      0.531140000000     0.349100000000     0.458400000000     0          
C489     C      0.631000000000     0.054700000000     0.460700000000     0          
H490     H      0.624220000000     0.025260000000     0.432970000000     0          
O491     O      0.939930000000     0.001100000000     0.334800000000     0          
H492     H      0.945940000000     0.020690000000     0.304270000000     0          
C493     C      0.624100000000     0.148100000000     0.497000000000     0          
C494     C      0.605700000000     0.199200000000     0.498800000000     0          
C495     C      0.666800000000     0.095000000000     0.526700000000     0          
H496     H      0.685920000000     0.093810000000     0.549130000000     0          
C497     C      0.651100000000     0.144100000000     0.525500000000     0          
H498     H      0.660060000000     0.175400000000     0.545630000000     0          
C499     C      0.614800000000     0.102500000000     0.463000000000     0          
H500     H      0.595970000000     0.103880000000     0.439410000000     0          
C501     C      0.610600000000     0.238600000000     0.543700000000     0          
H502     H      0.627010000000     0.234890000000     0.574830000000     0          
C503     C      0.592900000000     0.285100000000     0.547700000000     0          
H504     H      0.596970000000     0.311490000000     0.582160000000     0          
C505     C      0.570210000000     0.293100000000     0.503300000000     0          
C506     C      0.563900000000     0.253700000000     0.459700000000     0          
H507     H      0.547120000000     0.257520000000     0.429610000000     0          
C508     C      0.581600000000     0.206100000000     0.456900000000     0          
H509     H      0.576450000000     0.178330000000     0.424930000000     0          
C510     C      0.551320000000     0.343900000000     0.503000000000     0          
C511     C      0.026700000000     0.181800000000     0.249300000000     0          
H512     H      0.046220000000     0.169220000000     0.262610000000     0          
C513     C      0.023500000000     0.224000000000     0.204800000000     0          
H514     H      0.042340000000     0.238440000000     0.190230000000     0          
C515     C      0.752200000000     0.035300000000     0.456600000000     0          
H516     H      0.762710000000     0.059200000000     0.426640000000     0          
Zr517    Zr     0.460230000000     0.459650000000     0.574150000000     0          
C518     C      0.349300000000     0.475000000000     0.551200000000     0          
H519     H      0.359580000000     0.457710000000     0.588090000000     0          
O520     O      0.461400000000     0.458700000000     0.463300000000     0          
C521     C      0.318300000000     0.475100000000     0.548900000000     0          
H522     H      0.307650000000     0.456430000000     0.584090000000     0          
O523     O      0.412040000000     0.473510000000     0.547300000000     0          
O524     O      0.057710000000     0.122010000000     0.450500000000     0          
C525     C      0.220500000000     0.465300000000     0.542100000000     0          
H526     H      0.209580000000     0.441030000000     0.570970000000     0          
O527     O      0.472070000000     0.408300000000     0.662800000000     0          
H528     H      0.462940000000     0.579600000000     0.656300000000     0          
O529     O      0.473300000000     0.601500000000     0.664200000000     0          
C530     C      0.156460000000     0.450000000000     0.501700000000     0          
O531     O      0.031140000000     0.150900000000     0.541600000000     0          
C532     C      0.131000000000     0.445300000000     0.539300000000     0          
H533     H      0.124220000000     0.474740000000     0.567030000000     0          
O534     O      0.439930000000     0.498900000000     0.665200000000     0          
H535     H      0.445940000000     0.479310000000     0.695730000000     0          
C536     C      0.124100000000     0.351900000000     0.503000000000     0          
C537     C      0.105700000000     0.300800000000     0.501200000000     0          
C538     C      0.166800000000     0.405000000000     0.473300000000     0          
H539     H      0.185920000000     0.406190000000     0.450870000000     0          
C540     C      0.151100000000     0.355900000000     0.474500000000     0          
H541     H      0.160060000000     0.324600000000     0.454370000000     0          
C542     C      0.114800000000     0.397500000000     0.537000000000     0          
H543     H      0.095970000000     0.396120000000     0.560590000000     0          
C544     C      0.110600000000     0.261400000000     0.456300000000     0          
H545     H      0.127010000000     0.265110000000     0.425170000000     0          
C546     C      0.092900000000     0.214900000000     0.452300000000     0          
H547     H      0.096970000000     0.188510000000     0.417840000000     0          
C548     C      0.070210000000     0.206900000000     0.496700000000     0          
C549     C      0.063900000000     0.246300000000     0.540300000000     0          
H550     H      0.047120000000     0.242480000000     0.570390000000     0          
C551     C      0.081600000000     0.293900000000     0.543100000000     0          
H552     H      0.076450000000     0.321670000000     0.575070000000     0          
C553     C      0.051320000000     0.156100000000     0.497000000000     0          
C554     C      0.526700000000     0.318200000000     0.750700000000     0          
H555     H      0.546220000000     0.330780000000     0.737390000000     0          
C556     C      0.523500000000     0.276000000000     0.795200000000     0          
H557     H      0.542340000000     0.261560000000     0.809770000000     0          
C558     C      0.252200000000     0.464700000000     0.543400000000     0          
H559     H      0.262710000000     0.440800000000     0.573360000000     0          
Zr560    Zr     0.960230000000     0.959650000000     0.574150000000     0          
C561     C      0.849300000000     0.975000000000     0.551200000000     0          
H562     H      0.859580000000     0.957710000000     0.588090000000     0          
O563     O      0.961400000000     0.958700000000     0.463300000000     0          
C564     C      0.818300000000     0.975100000000     0.548900000000     0          
H565     H      0.807650000000     0.956430000000     0.584090000000     0          
O566     O      0.912040000000     0.973510000000     0.547300000000     0          
O567     O      0.557710000000     0.622010000000     0.450500000000     0          
C568     C      0.720500000000     0.965300000000     0.542100000000     0          
H569     H      0.709580000000     0.941030000000     0.570970000000     0          
O570     O      0.972070000000     0.908300000000     0.662800000000     0          
H571     H      0.962940000000     0.079600000000     0.656300000000     0          
O572     O      0.973300000000     0.101500000000     0.664200000000     0          
C573     C      0.656460000000     0.950000000000     0.501700000000     0          
O574     O      0.531140000000     0.650900000000     0.541600000000     0          
C575     C      0.631000000000     0.945300000000     0.539300000000     0          
H576     H      0.624220000000     0.974740000000     0.567030000000     0          
O577     O      0.939930000000     0.998900000000     0.665200000000     0          
H578     H      0.945940000000     0.979310000000     0.695730000000     0          
C579     C      0.624100000000     0.851900000000     0.503000000000     0          
C580     C      0.605700000000     0.800800000000     0.501200000000     0          
C581     C      0.666800000000     0.905000000000     0.473300000000     0          
H582     H      0.685920000000     0.906190000000     0.450870000000     0          
C583     C      0.651100000000     0.855900000000     0.474500000000     0          
H584     H      0.660060000000     0.824600000000     0.454370000000     0          
C585     C      0.614800000000     0.897500000000     0.537000000000     0          
H586     H      0.595970000000     0.896120000000     0.560590000000     0          
C587     C      0.610600000000     0.761400000000     0.456300000000     0          
H588     H      0.627010000000     0.765110000000     0.425170000000     0          
C589     C      0.592900000000     0.714900000000     0.452300000000     0          
H590     H      0.596970000000     0.688510000000     0.417840000000     0          
C591     C      0.570210000000     0.706900000000     0.496700000000     0          
C592     C      0.563900000000     0.746300000000     0.540300000000     0          
H593     H      0.547120000000     0.742480000000     0.570390000000     0          
C594     C      0.581600000000     0.793900000000     0.543100000000     0          
H595     H      0.576450000000     0.821670000000     0.575070000000     0          
C596     C      0.551320000000     0.656100000000     0.497000000000     0          
C597     C      0.026700000000     0.818200000000     0.750700000000     0          
H598     H      0.046220000000     0.830780000000     0.737390000000     0          
C599     C      0.023500000000     0.776000000000     0.795200000000     0          
H600     H      0.042340000000     0.761560000000     0.809770000000     0          
C601     C      0.752200000000     0.964700000000     0.543400000000     0          
H602     H      0.762710000000     0.940800000000     0.573360000000     0          
Zr603    Zr     0.539770000000     0.040350000000     0.074150000000     0          
C604     C      0.650700000000     0.025000000000     0.051200000000     0          
H605     H      0.640420000000     0.042290000000     0.088090000000     0          
O606     O      0.538600000000     0.041300000000     0.963300000000     0          
C607     C      0.681700000000     0.024900000000     0.048900000000     0          
H608     H      0.692350000000     0.043570000000     0.084090000000     0          
O609     O      0.587960000000     0.026490000000     0.047300000000     0          
O610     O      0.942290000000     0.377990000000     0.950500000000     0          
C611     C      0.779500000000     0.034700000000     0.042100000000     0          
H612     H      0.790420000000     0.058970000000     0.070970000000     0          
O613     O      0.527930000000     0.091700000000     0.162800000000     0          
H614     H      0.537060000000     0.920400000000     0.156300000000     0          
O615     O      0.526700000000     0.898500000000     0.164200000000     0          
C616     C      0.843540000000     0.050000000000     0.001700000000     0          
O617     O      0.968860000000     0.349100000000     0.041600000000     0          
C618     C      0.869000000000     0.054700000000     0.039300000000     0          
H619     H      0.875780000000     0.025260000000     0.067030000000     0          
O620     O      0.560070000000     0.001100000000     0.165200000000     0          
H621     H      0.554060000000     0.020690000000     0.195730000000     0          
C622     C      0.875900000000     0.148100000000     0.003000000000     0          
C623     C      0.894300000000     0.199200000000     0.001200000000     0          
C624     C      0.833200000000     0.095000000000     0.973300000000     0          
H625     H      0.814080000000     0.093810000000     0.950870000000     0          
C626     C      0.848900000000     0.144100000000     0.974500000000     0          
H627     H      0.839940000000     0.175400000000     0.954370000000     0          
C628     C      0.885200000000     0.102500000000     0.037000000000     0          
H629     H      0.904030000000     0.103880000000     0.060590000000     0          
C630     C      0.889400000000     0.238600000000     0.956300000000     0          
H631     H      0.872990000000     0.234890000000     0.925170000000     0          
C632     C      0.907100000000     0.285100000000     0.952300000000     0          
H633     H      0.903030000000     0.311490000000     0.917840000000     0          
C634     C      0.929790000000     0.293100000000     0.996700000000     0          
C635     C      0.936100000000     0.253700000000     0.040300000000     0          
H636     H      0.952880000000     0.257520000000     0.070390000000     0          
C637     C      0.918400000000     0.206100000000     0.043100000000     0          
H638     H      0.923550000000     0.178330000000     0.075070000000     0          
C639     C      0.948680000000     0.343900000000     0.997000000000     0          
C640     C      0.473300000000     0.181800000000     0.250700000000     0          
H641     H      0.453780000000     0.169220000000     0.237390000000     0          
C642     C      0.476500000000     0.224000000000     0.295200000000     0          
H643     H      0.457660000000     0.238440000000     0.309770000000     0          
C644     C      0.747800000000     0.035300000000     0.043400000000     0          
H645     H      0.737290000000     0.059200000000     0.073360000000     0          
Zr646    Zr     0.039770000000     0.540350000000     0.074150000000     0          
C647     C      0.150700000000     0.525000000000     0.051200000000     0          
H648     H      0.140420000000     0.542290000000     0.088090000000     0          
O649     O      0.038600000000     0.541300000000     0.963300000000     0          
C650     C      0.181700000000     0.524900000000     0.048900000000     0          
H651     H      0.192350000000     0.543570000000     0.084090000000     0          
O652     O      0.087960000000     0.526490000000     0.047300000000     0          
O653     O      0.442290000000     0.877990000000     0.950500000000     0          
C654     C      0.279500000000     0.534700000000     0.042100000000     0          
H655     H      0.290420000000     0.558970000000     0.070970000000     0          
O656     O      0.027930000000     0.591700000000     0.162800000000     0          
H657     H      0.037060000000     0.420400000000     0.156300000000     0          
O658     O      0.026700000000     0.398500000000     0.164200000000     0          
C659     C      0.343540000000     0.550000000000     0.001700000000     0          
O660     O      0.468860000000     0.849100000000     0.041600000000     0          
C661     C      0.369000000000     0.554700000000     0.039300000000     0          
H662     H      0.375780000000     0.525260000000     0.067030000000     0          
O663     O      0.060070000000     0.501100000000     0.165200000000     0          
H664     H      0.054060000000     0.520690000000     0.195730000000     0          
C665     C      0.375900000000     0.648100000000     0.003000000000     0          
C666     C      0.394300000000     0.699200000000     0.001200000000     0          
C667     C      0.333200000000     0.595000000000     0.973300000000     0          
H668     H      0.314080000000     0.593810000000     0.950870000000     0          
C669     C      0.348900000000     0.644100000000     0.974500000000     0          
H670     H      0.339940000000     0.675400000000     0.954370000000     0          
C671     C      0.385200000000     0.602500000000     0.037000000000     0          
H672     H      0.404030000000     0.603880000000     0.060590000000     0          
C673     C      0.389400000000     0.738600000000     0.956300000000     0          
H674     H      0.372990000000     0.734890000000     0.925170000000     0          
C675     C      0.407100000000     0.785100000000     0.952300000000     0          
H676     H      0.403030000000     0.811490000000     0.917840000000     0          
C677     C      0.429790000000     0.793100000000     0.996700000000     0          
C678     C      0.436100000000     0.753700000000     0.040300000000     0          
H679     H      0.452880000000     0.757520000000     0.070390000000     0          
C680     C      0.418400000000     0.706100000000     0.043100000000     0          
H681     H      0.423550000000     0.678330000000     0.075070000000     0          
C682     C      0.448680000000     0.843900000000     0.997000000000     0          
C683     C      0.973300000000     0.681800000000     0.250700000000     0          
H684     H      0.953780000000     0.669220000000     0.237390000000     0          
C685     C      0.976500000000     0.724000000000     0.295200000000     0          
H686     H      0.957660000000     0.738440000000     0.309770000000     0          
C687     C      0.247800000000     0.535300000000     0.043400000000     0          
H688     H      0.237290000000     0.559200000000     0.073360000000     0          
N689     N      0.172500000000     0.000000000000     0.000000000000     0          
C690     C      0.399200000000     0.000000000000     0.000000000000     0          
C691     C      0.365300000000     0.000000000000     0.000000000000     0          
C692     C      0.302200000000     0.000000000000     0.000000000000     0          
C693     C      0.268000000000     0.000000000000     0.000000000000     0          
C694     C      0.204900000000     0.000000000000     0.000000000000     0          
N695     N      0.672500000000     0.500000000000     0.000000000000     0          
C696     C      0.899200000000     0.500000000000     0.000000000000     0          
C697     C      0.865300000000     0.500000000000     0.000000000000     0          
C698     C      0.802200000000     0.500000000000     0.000000000000     0          
C699     C      0.768000000000     0.500000000000     0.000000000000     0          
C700     C      0.704900000000     0.500000000000     0.000000000000     0          
N701     N      0.827500000000     0.500000000000     0.500000000000     0          
C702     C      0.600800000000     0.500000000000     0.500000000000     0          
C703     C      0.634700000000     0.500000000000     0.500000000000     0          
C704     C      0.697800000000     0.500000000000     0.500000000000     0          
C705     C      0.732000000000     0.500000000000     0.500000000000     0          
C706     C      0.795100000000     0.500000000000     0.500000000000     0          
N707     N      0.327500000000     0.000000000000     0.500000000000     0          
C708     C      0.100800000000     0.000000000000     0.500000000000     0          
C709     C      0.134700000000     0.000000000000     0.500000000000     0          
C710     C      0.197800000000     0.000000000000     0.500000000000     0          
C711     C      0.232000000000     0.000000000000     0.500000000000     0          
C712     C      0.295100000000     0.000000000000     0.500000000000     0          
N713     N      0.827500000000     0.000000000000     0.000000000000     0          
C714     C      0.600800000000     0.000000000000     0.000000000000     0          
C715     C      0.634700000000     0.000000000000     0.000000000000     0          
C716     C      0.697800000000     0.000000000000     0.000000000000     0          
C717     C      0.732000000000     0.000000000000     0.000000000000     0          
C718     C      0.795100000000     0.000000000000     0.000000000000     0          
N719     N      0.327500000000     0.500000000000     0.000000000000     0          
C720     C      0.100800000000     0.500000000000     0.000000000000     0          
C721     C      0.134700000000     0.500000000000     0.000000000000     0          
C722     C      0.197800000000     0.500000000000     0.000000000000     0          
C723     C      0.232000000000     0.500000000000     0.000000000000     0          
C724     C      0.295100000000     0.500000000000     0.000000000000     0          
N725     N      0.172500000000     0.500000000000     0.500000000000     0          
C726     C      0.399200000000     0.500000000000     0.500000000000     0          
C727     C      0.365300000000     0.500000000000     0.500000000000     0          
C728     C      0.302200000000     0.500000000000     0.500000000000     0          
C729     C      0.268000000000     0.500000000000     0.500000000000     0          
C730     C      0.204900000000     0.500000000000     0.500000000000     0          
N731     N      0.672500000000     0.000000000000     0.500000000000     0          
C732     C      0.899200000000     0.000000000000     0.500000000000     0          
C733     C      0.865300000000     0.000000000000     0.500000000000     0          
C734     C      0.802200000000     0.000000000000     0.500000000000     0          
C735     C      0.768000000000     0.000000000000     0.500000000000     0          
C736     C      0.704900000000     0.000000000000     0.500000000000     0          
Zr737    Zr     0.500000000000     0.916440000000     0.070210000000     0          
O738     O      0.500000000000     0.922000000000     0.959600000000     0          
H739     H      0.500000000000     0.891430000000     0.945580000000     0          
C740     C      0.500000000000     0.114200000000     0.178200000000     0          
C741     C      0.500000000000     0.157000000000     0.224700000000     0          
C742     C      0.500000000000     0.249900000000     0.323100000000     0          
H743     H      0.500000000000     0.279320000000     0.354780000000     0          
O744     O      0.500000000000     0.997100000000     0.112600000000     0          
H745     H      0.500000000000     0.993720000000     0.081630000000     0          
Zr746    Zr     0.000000000000     0.416440000000     0.070210000000     0          
O747     O      0.000000000000     0.422000000000     0.959600000000     0          
H748     H      0.000000000000     0.391430000000     0.945580000000     0          
C749     C      0.000000000000     0.614200000000     0.178200000000     0          
C750     C      0.000000000000     0.657000000000     0.224700000000     0          
C751     C      0.000000000000     0.749900000000     0.323100000000     0          
H752     H      0.000000000000     0.779320000000     0.354780000000     0          
O753     O      0.000000000000     0.497100000000     0.112600000000     0          
H754     H      0.000000000000     0.493720000000     0.081630000000     0          
Zr755    Zr     0.500000000000     0.583560000000     0.570210000000     0          
O756     O      0.500000000000     0.578000000000     0.459600000000     0          
H757     H      0.500000000000     0.608570000000     0.445580000000     0          
C758     C      0.500000000000     0.385800000000     0.678200000000     0          
C759     C      0.500000000000     0.343000000000     0.724700000000     0          
C760     C      0.500000000000     0.250100000000     0.823100000000     0          
H761     H      0.500000000000     0.220680000000     0.854780000000     0          
O762     O      0.500000000000     0.502900000000     0.612600000000     0          
H763     H      0.500000000000     0.506280000000     0.581630000000     0          
Zr764    Zr     0.000000000000     0.083560000000     0.570210000000     0          
O765     O      0.000000000000     0.078000000000     0.459600000000     0          
H766     H      0.000000000000     0.108570000000     0.445580000000     0          
C767     C      0.000000000000     0.885800000000     0.678200000000     0          
C768     C      0.000000000000     0.843000000000     0.724700000000     0          
C769     C      0.000000000000     0.750100000000     0.823100000000     0          
H770     H      0.000000000000     0.720680000000     0.854780000000     0          
O771     O      0.000000000000     0.002900000000     0.612600000000     0          
H772     H      0.000000000000     0.006280000000     0.581630000000     0          
Zr773    Zr     0.500000000000     0.416440000000     0.429790000000     0          
O774     O      0.500000000000     0.422000000000     0.540400000000     0          
H775     H      0.500000000000     0.391430000000     0.554420000000     0          
C776     C      0.500000000000     0.614200000000     0.321800000000     0          
C777     C      0.500000000000     0.657000000000     0.275300000000     0          
C778     C      0.500000000000     0.749900000000     0.176900000000     0          
H779     H      0.500000000000     0.779320000000     0.145220000000     0          
O780     O      0.500000000000     0.497100000000     0.387400000000     0          
H781     H      0.500000000000     0.493720000000     0.418370000000     0          
Zr782    Zr     0.000000000000     0.916440000000     0.429790000000     0          
O783     O      0.000000000000     0.922000000000     0.540400000000     0          
H784     H      0.000000000000     0.891430000000     0.554420000000     0          
C785     C      0.000000000000     0.114200000000     0.321800000000     0          
C786     C      0.000000000000     0.157000000000     0.275300000000     0          
C787     C      0.000000000000     0.249900000000     0.176900000000     0          
H788     H      0.000000000000     0.279320000000     0.145220000000     0          
O789     O      0.000000000000     0.997100000000     0.387400000000     0          
H790     H      0.000000000000     0.993720000000     0.418370000000     0          
Zr791    Zr     0.500000000000     0.083560000000     0.929790000000     0          
O792     O      0.500000000000     0.078000000000     0.040400000000     0          
H793     H      0.500000000000     0.108570000000     0.054420000000     0          
C794     C      0.500000000000     0.885800000000     0.821800000000     0          
C795     C      0.500000000000     0.843000000000     0.775300000000     0          
C796     C      0.500000000000     0.750100000000     0.676900000000     0          
H797     H      0.500000000000     0.720680000000     0.645220000000     0          
O798     O      0.500000000000     0.002900000000     0.887400000000     0          
H799     H      0.500000000000     0.006280000000     0.918370000000     0          
Zr800    Zr     0.000000000000     0.583560000000     0.929790000000     0          
O801     O      0.000000000000     0.578000000000     0.040400000000     0          
H802     H      0.000000000000     0.608570000000     0.054420000000     0          
C803     C      0.000000000000     0.385800000000     0.821800000000     0          
C804     C      0.000000000000     0.343000000000     0.775300000000     0          
C805     C      0.000000000000     0.250100000000     0.676900000000     0          
H806     H      0.000000000000     0.220680000000     0.645220000000     0          
O807     O      0.000000000000     0.502900000000     0.887400000000     0          
H808     H      0.000000000000     0.506280000000     0.918370000000     0          


