data_WIZMAV01

_audit_creation_method RASPA-1.0
_audit_creation_date 2020-11-2
_audit_author_name 'Rocio Bueno-Perez'

_cell_length_a    26.8809
_cell_length_b    26.8809
_cell_length_c    26.8809
_cell_angle_alpha 90
_cell_angle_beta  90
_cell_angle_gamma 90
_cell_volume      19423.7

_symmetry_cell_setting          triclinic
_symmetry_space_group_name_Hall 'P 1'
_symmetry_space_group_name_H-M  'P 1'
_symmetry_Int_Tables_number     1

_symmetry_equiv_pos_as_xyz 'x,y,z'

loop_
_atom_site_label
_atom_site_type_symbol
_atom_site_fract_x
_atom_site_fract_y
_atom_site_fract_z
_atom_site_charge
C1       C      0.855180000000     0.488060000000     0.294640000000     0          
C2       C      0.818570000000     0.487500000000     0.258330000000     0          
H3       H      0.892800000000     0.482000000000     0.287800000000     0          
H4       H      0.830100000000     0.477800000000     0.225100000000     0          
C5       C      0.644820000000     0.011940000000     0.294640000000     0          
C6       C      0.681430000000     0.012500000000     0.258330000000     0          
H7       H      0.607200000000     0.018000000000     0.287800000000     0          
H8       H      0.669900000000     0.022200000000     0.225100000000     0          
C9       C      0.144820000000     0.011940000000     0.794640000000     0          
C10      C      0.181430000000     0.012500000000     0.758330000000     0          
H11      H      0.107200000000     0.018000000000     0.787800000000     0          
H12      H      0.169900000000     0.022200000000     0.725100000000     0          
C13      C      0.144820000000     0.511940000000     0.294640000000     0          
C14      C      0.181430000000     0.512500000000     0.258330000000     0          
H15      H      0.107200000000     0.518000000000     0.287800000000     0          
H16      H      0.169900000000     0.522200000000     0.225100000000     0          
C17      C      0.644820000000     0.488060000000     0.205360000000     0          
C18      C      0.681430000000     0.487500000000     0.241670000000     0          
H19      H      0.607200000000     0.482000000000     0.212200000000     0          
H20      H      0.669900000000     0.477800000000     0.274900000000     0          
C21      C      0.355180000000     0.011940000000     0.705360000000     0          
C22      C      0.318570000000     0.012500000000     0.741670000000     0          
H23      H      0.392800000000     0.018000000000     0.712200000000     0          
H24      H      0.330100000000     0.022200000000     0.774900000000     0          
C25      C      0.355180000000     0.511940000000     0.205360000000     0          
C26      C      0.318570000000     0.512500000000     0.241670000000     0          
H27      H      0.392800000000     0.518000000000     0.212200000000     0          
H28      H      0.330100000000     0.522200000000     0.274900000000     0          
C29      C      0.855180000000     0.011940000000     0.205360000000     0          
C30      C      0.818570000000     0.012500000000     0.241670000000     0          
H31      H      0.892800000000     0.018000000000     0.212200000000     0          
H32      H      0.830100000000     0.022200000000     0.274900000000     0          
C33      C      0.794640000000     0.355180000000     0.488060000000     0          
C34      C      0.758330000000     0.318570000000     0.487500000000     0          
H35      H      0.787800000000     0.392800000000     0.482000000000     0          
H36      H      0.725100000000     0.330100000000     0.477800000000     0          
C37      C      0.294640000000     0.644820000000     0.011940000000     0          
C38      C      0.258330000000     0.681430000000     0.012500000000     0          
H39      H      0.287800000000     0.607200000000     0.018000000000     0          
H40      H      0.225100000000     0.669900000000     0.022200000000     0          
C41      C      0.294640000000     0.144820000000     0.511940000000     0          
C42      C      0.258330000000     0.181430000000     0.512500000000     0          
H43      H      0.287800000000     0.107200000000     0.518000000000     0          
H44      H      0.225100000000     0.169900000000     0.522200000000     0          
C45      C      0.794640000000     0.144820000000     0.011940000000     0          
C46      C      0.758330000000     0.181430000000     0.012500000000     0          
H47      H      0.787800000000     0.107200000000     0.018000000000     0          
H48      H      0.725100000000     0.169900000000     0.022200000000     0          
C49      C      0.705360000000     0.144820000000     0.488060000000     0          
C50      C      0.741670000000     0.181430000000     0.487500000000     0          
H51      H      0.712200000000     0.107200000000     0.482000000000     0          
H52      H      0.774900000000     0.169900000000     0.477800000000     0          
C53      C      0.705360000000     0.355180000000     0.011940000000     0          
C54      C      0.741670000000     0.318570000000     0.012500000000     0          
H55      H      0.712200000000     0.392800000000     0.018000000000     0          
H56      H      0.774900000000     0.330100000000     0.022200000000     0          
C57      C      0.205360000000     0.355180000000     0.511940000000     0          
C58      C      0.241670000000     0.318570000000     0.512500000000     0          
H59      H      0.212200000000     0.392800000000     0.518000000000     0          
H60      H      0.274900000000     0.330100000000     0.522200000000     0          
C61      C      0.205360000000     0.855180000000     0.011940000000     0          
C62      C      0.241670000000     0.818570000000     0.012500000000     0          
H63      H      0.212200000000     0.892800000000     0.018000000000     0          
H64      H      0.274900000000     0.830100000000     0.022200000000     0          
C65      C      0.988060000000     0.294640000000     0.355180000000     0          
C66      C      0.987500000000     0.258330000000     0.318570000000     0          
H67      H      0.982000000000     0.287800000000     0.392800000000     0          
H68      H      0.977800000000     0.225100000000     0.330100000000     0          
C69      C      0.488060000000     0.294640000000     0.855180000000     0          
C70      C      0.487500000000     0.258330000000     0.818570000000     0          
H71      H      0.482000000000     0.287800000000     0.892800000000     0          
H72      H      0.477800000000     0.225100000000     0.830100000000     0          
C73      C      0.011940000000     0.294640000000     0.644820000000     0          
C74      C      0.012500000000     0.258330000000     0.681430000000     0          
H75      H      0.018000000000     0.287800000000     0.607200000000     0          
H76      H      0.022200000000     0.225100000000     0.669900000000     0          
C77      C      0.511940000000     0.294640000000     0.144820000000     0          
C78      C      0.512500000000     0.258330000000     0.181430000000     0          
H79      H      0.518000000000     0.287800000000     0.107200000000     0          
H80      H      0.522200000000     0.225100000000     0.169900000000     0          
C81      C      0.988060000000     0.205360000000     0.144820000000     0          
C82      C      0.987500000000     0.241670000000     0.181430000000     0          
H83      H      0.982000000000     0.212200000000     0.107200000000     0          
H84      H      0.977800000000     0.274900000000     0.169900000000     0          
C85      C      0.488060000000     0.205360000000     0.644820000000     0          
C86      C      0.487500000000     0.241670000000     0.681430000000     0          
H87      H      0.482000000000     0.212200000000     0.607200000000     0          
H88      H      0.477800000000     0.274900000000     0.669900000000     0          
C89      C      0.011940000000     0.205360000000     0.855180000000     0          
C90      C      0.012500000000     0.241670000000     0.818570000000     0          
H91      H      0.018000000000     0.212200000000     0.892800000000     0          
H92      H      0.022200000000     0.274900000000     0.830100000000     0          
C93      C      0.511940000000     0.205360000000     0.355180000000     0          
C94      C      0.512500000000     0.241670000000     0.318570000000     0          
H95      H      0.518000000000     0.212200000000     0.392800000000     0          
H96      H      0.522200000000     0.274900000000     0.330100000000     0          
C97      C      0.988060000000     0.355180000000     0.705360000000     0          
C98      C      0.987500000000     0.318570000000     0.741670000000     0          
H99      H      0.982000000000     0.392800000000     0.712200000000     0          
H100     H      0.977800000000     0.330100000000     0.774900000000     0          
C101     C      0.488060000000     0.355180000000     0.205360000000     0          
C102     C      0.487500000000     0.318570000000     0.241670000000     0          
H103     H      0.482000000000     0.392800000000     0.212200000000     0          
H104     H      0.477800000000     0.330100000000     0.274900000000     0          
C105     C      0.011940000000     0.144820000000     0.205360000000     0          
C106     C      0.012500000000     0.181430000000     0.241670000000     0          
H107     H      0.018000000000     0.107200000000     0.212200000000     0          
H108     H      0.022200000000     0.169900000000     0.274900000000     0          
C109     C      0.511940000000     0.144820000000     0.705360000000     0          
C110     C      0.512500000000     0.181430000000     0.741670000000     0          
H111     H      0.518000000000     0.107200000000     0.712200000000     0          
H112     H      0.522200000000     0.169900000000     0.774900000000     0          
C113     C      0.988060000000     0.144820000000     0.794640000000     0          
C114     C      0.987500000000     0.181430000000     0.758330000000     0          
H115     H      0.982000000000     0.107200000000     0.787800000000     0          
H116     H      0.977800000000     0.169900000000     0.725100000000     0          
C117     C      0.488060000000     0.144820000000     0.294640000000     0          
C118     C      0.487500000000     0.181430000000     0.258330000000     0          
H119     H      0.482000000000     0.107200000000     0.287800000000     0          
H120     H      0.477800000000     0.169900000000     0.225100000000     0          
C121     C      0.011940000000     0.355180000000     0.294640000000     0          
C122     C      0.012500000000     0.318570000000     0.258330000000     0          
H123     H      0.018000000000     0.392800000000     0.287800000000     0          
H124     H      0.022200000000     0.330100000000     0.225100000000     0          
C125     C      0.511940000000     0.355180000000     0.794640000000     0          
C126     C      0.512500000000     0.318570000000     0.758330000000     0          
H127     H      0.518000000000     0.392800000000     0.787800000000     0          
H128     H      0.522200000000     0.330100000000     0.725100000000     0          
C129     C      0.855180000000     0.294640000000     0.511940000000     0          
C130     C      0.818570000000     0.258330000000     0.512500000000     0          
H131     H      0.892800000000     0.287800000000     0.518000000000     0          
H132     H      0.830100000000     0.225100000000     0.522200000000     0          
C133     C      0.644820000000     0.294640000000     0.988060000000     0          
C134     C      0.681430000000     0.258330000000     0.987500000000     0          
H135     H      0.607200000000     0.287800000000     0.982000000000     0          
H136     H      0.669900000000     0.225100000000     0.977800000000     0          
C137     C      0.144820000000     0.294640000000     0.488060000000     0          
C138     C      0.181430000000     0.258330000000     0.487500000000     0          
H139     H      0.107200000000     0.287800000000     0.482000000000     0          
H140     H      0.169900000000     0.225100000000     0.477800000000     0          
C141     C      0.144820000000     0.794640000000     0.988060000000     0          
C142     C      0.181430000000     0.758330000000     0.987500000000     0          
H143     H      0.107200000000     0.787800000000     0.982000000000     0          
H144     H      0.169900000000     0.725100000000     0.977800000000     0          
C145     C      0.644820000000     0.205360000000     0.511940000000     0          
C146     C      0.681430000000     0.241670000000     0.512500000000     0          
H147     H      0.607200000000     0.212200000000     0.518000000000     0          
H148     H      0.669900000000     0.274900000000     0.522200000000     0          
C149     C      0.355180000000     0.705360000000     0.988060000000     0          
C150     C      0.318570000000     0.741670000000     0.987500000000     0          
H151     H      0.392800000000     0.712200000000     0.982000000000     0          
H152     H      0.330100000000     0.774900000000     0.977800000000     0          
C153     C      0.355180000000     0.205360000000     0.488060000000     0          
C154     C      0.318570000000     0.241670000000     0.487500000000     0          
H155     H      0.392800000000     0.212200000000     0.482000000000     0          
H156     H      0.330100000000     0.274900000000     0.477800000000     0          
C157     C      0.855180000000     0.205360000000     0.988060000000     0          
C158     C      0.818570000000     0.241670000000     0.987500000000     0          
H159     H      0.892800000000     0.212200000000     0.982000000000     0          
H160     H      0.830100000000     0.274900000000     0.977800000000     0          
C161     C      0.294640000000     0.988060000000     0.644820000000     0          
C162     C      0.258330000000     0.987500000000     0.681430000000     0          
H163     H      0.287800000000     0.982000000000     0.607200000000     0          
H164     H      0.225100000000     0.977800000000     0.669900000000     0          
C165     C      0.294640000000     0.488060000000     0.144820000000     0          
C166     C      0.258330000000     0.487500000000     0.181430000000     0          
H167     H      0.287800000000     0.482000000000     0.107200000000     0          
H168     H      0.225100000000     0.477800000000     0.169900000000     0          
C169     C      0.794640000000     0.988060000000     0.144820000000     0          
C170     C      0.758330000000     0.987500000000     0.181430000000     0          
H171     H      0.787800000000     0.982000000000     0.107200000000     0          
H172     H      0.725100000000     0.977800000000     0.169900000000     0          
C173     C      0.794640000000     0.511940000000     0.355180000000     0          
C174     C      0.758330000000     0.512500000000     0.318570000000     0          
H175     H      0.787800000000     0.518000000000     0.392800000000     0          
H176     H      0.725100000000     0.522200000000     0.330100000000     0          
C177     C      0.705360000000     0.988060000000     0.355180000000     0          
C178     C      0.741670000000     0.987500000000     0.318570000000     0          
H179     H      0.712200000000     0.982000000000     0.392800000000     0          
H180     H      0.774900000000     0.977800000000     0.330100000000     0          
C181     C      0.205360000000     0.988060000000     0.855180000000     0          
C182     C      0.241670000000     0.987500000000     0.818570000000     0          
H183     H      0.212200000000     0.982000000000     0.892800000000     0          
H184     H      0.274900000000     0.977800000000     0.830100000000     0          
C185     C      0.205360000000     0.488060000000     0.355180000000     0          
C186     C      0.241670000000     0.487500000000     0.318570000000     0          
H187     H      0.212200000000     0.482000000000     0.392800000000     0          
H188     H      0.274900000000     0.477800000000     0.330100000000     0          
C189     C      0.705360000000     0.511940000000     0.144820000000     0          
C190     C      0.741670000000     0.512500000000     0.181430000000     0          
H191     H      0.712200000000     0.518000000000     0.107200000000     0          
H192     H      0.774900000000     0.522200000000     0.169900000000     0          
C193     C      0.644820000000     0.011940000000     0.705360000000     0          
C194     C      0.681430000000     0.012500000000     0.741670000000     0          
H195     H      0.607200000000     0.018000000000     0.712200000000     0          
H196     H      0.669900000000     0.022200000000     0.774900000000     0          
C197     C      0.144820000000     0.011940000000     0.205360000000     0          
C198     C      0.181430000000     0.012500000000     0.241670000000     0          
H199     H      0.107200000000     0.018000000000     0.212200000000     0          
H200     H      0.169900000000     0.022200000000     0.274900000000     0          
C201     C      0.144820000000     0.511940000000     0.705360000000     0          
C202     C      0.181430000000     0.512500000000     0.741670000000     0          
H203     H      0.107200000000     0.518000000000     0.712200000000     0          
H204     H      0.169900000000     0.522200000000     0.774900000000     0          
C205     C      0.855180000000     0.488060000000     0.705360000000     0          
C206     C      0.818570000000     0.487500000000     0.741670000000     0          
H207     H      0.892800000000     0.482000000000     0.712200000000     0          
H208     H      0.830100000000     0.477800000000     0.774900000000     0          
C209     C      0.355180000000     0.011940000000     0.294640000000     0          
C210     C      0.318570000000     0.012500000000     0.258330000000     0          
H211     H      0.392800000000     0.018000000000     0.287800000000     0          
H212     H      0.330100000000     0.022200000000     0.225100000000     0          
C213     C      0.355180000000     0.511940000000     0.794640000000     0          
C214     C      0.318570000000     0.512500000000     0.758330000000     0          
H215     H      0.392800000000     0.518000000000     0.787800000000     0          
H216     H      0.330100000000     0.522200000000     0.725100000000     0          
C217     C      0.855180000000     0.011940000000     0.794640000000     0          
C218     C      0.818570000000     0.012500000000     0.758330000000     0          
H219     H      0.892800000000     0.018000000000     0.787800000000     0          
H220     H      0.830100000000     0.022200000000     0.725100000000     0          
C221     C      0.644820000000     0.488060000000     0.794640000000     0          
C222     C      0.681430000000     0.487500000000     0.758330000000     0          
H223     H      0.607200000000     0.482000000000     0.787800000000     0          
H224     H      0.669900000000     0.477800000000     0.725100000000     0          
C225     C      0.705360000000     0.644820000000     0.011940000000     0          
C226     C      0.741670000000     0.681430000000     0.012500000000     0          
H227     H      0.712200000000     0.607200000000     0.018000000000     0          
H228     H      0.774900000000     0.669900000000     0.022200000000     0          
C229     C      0.205360000000     0.644820000000     0.511940000000     0          
C230     C      0.241670000000     0.681430000000     0.512500000000     0          
H231     H      0.212200000000     0.607200000000     0.518000000000     0          
H232     H      0.274900000000     0.669900000000     0.522200000000     0          
C233     C      0.205360000000     0.144820000000     0.011940000000     0          
C234     C      0.241670000000     0.181430000000     0.012500000000     0          
H235     H      0.212200000000     0.107200000000     0.018000000000     0          
H236     H      0.274900000000     0.169900000000     0.022200000000     0          
C237     C      0.705360000000     0.855180000000     0.488060000000     0          
C238     C      0.741670000000     0.818570000000     0.487500000000     0          
H239     H      0.712200000000     0.892800000000     0.482000000000     0          
H240     H      0.774900000000     0.830100000000     0.477800000000     0          
C241     C      0.294640000000     0.355180000000     0.011940000000     0          
C242     C      0.258330000000     0.318570000000     0.012500000000     0          
H243     H      0.287800000000     0.392800000000     0.018000000000     0          
H244     H      0.225100000000     0.330100000000     0.022200000000     0          
C245     C      0.294640000000     0.855180000000     0.511940000000     0          
C246     C      0.258330000000     0.818570000000     0.512500000000     0          
H247     H      0.287800000000     0.892800000000     0.518000000000     0          
H248     H      0.225100000000     0.830100000000     0.522200000000     0          
C249     C      0.794640000000     0.855180000000     0.011940000000     0          
C250     C      0.758330000000     0.818570000000     0.012500000000     0          
H251     H      0.787800000000     0.892800000000     0.018000000000     0          
H252     H      0.725100000000     0.830100000000     0.022200000000     0          
C253     C      0.794640000000     0.644820000000     0.488060000000     0          
C254     C      0.758330000000     0.681430000000     0.487500000000     0          
H255     H      0.787800000000     0.607200000000     0.482000000000     0          
H256     H      0.725100000000     0.669900000000     0.477800000000     0          
C257     C      0.011940000000     0.705360000000     0.644820000000     0          
C258     C      0.012500000000     0.741670000000     0.681430000000     0          
H259     H      0.018000000000     0.712200000000     0.607200000000     0          
H260     H      0.022200000000     0.774900000000     0.669900000000     0          
C261     C      0.511940000000     0.705360000000     0.144820000000     0          
C262     C      0.512500000000     0.741670000000     0.181430000000     0          
H263     H      0.518000000000     0.712200000000     0.107200000000     0          
H264     H      0.522200000000     0.774900000000     0.169900000000     0          
C265     C      0.988060000000     0.705360000000     0.355180000000     0          
C266     C      0.987500000000     0.741670000000     0.318570000000     0          
H267     H      0.982000000000     0.712200000000     0.392800000000     0          
H268     H      0.977800000000     0.774900000000     0.330100000000     0          
C269     C      0.488060000000     0.705360000000     0.855180000000     0          
C270     C      0.487500000000     0.741670000000     0.818570000000     0          
H271     H      0.482000000000     0.712200000000     0.892800000000     0          
H272     H      0.477800000000     0.774900000000     0.830100000000     0          
C273     C      0.011940000000     0.794640000000     0.855180000000     0          
C274     C      0.012500000000     0.758330000000     0.818570000000     0          
H275     H      0.018000000000     0.787800000000     0.892800000000     0          
H276     H      0.022200000000     0.725100000000     0.830100000000     0          
C277     C      0.511940000000     0.794640000000     0.355180000000     0          
C278     C      0.512500000000     0.758330000000     0.318570000000     0          
H279     H      0.518000000000     0.787800000000     0.392800000000     0          
H280     H      0.522200000000     0.725100000000     0.330100000000     0          
C281     C      0.988060000000     0.794640000000     0.144820000000     0          
C282     C      0.987500000000     0.758330000000     0.181430000000     0          
H283     H      0.982000000000     0.787800000000     0.107200000000     0          
H284     H      0.977800000000     0.725100000000     0.169900000000     0          
C285     C      0.488060000000     0.794640000000     0.644820000000     0          
C286     C      0.487500000000     0.758330000000     0.681430000000     0          
H287     H      0.482000000000     0.787800000000     0.607200000000     0          
H288     H      0.477800000000     0.725100000000     0.669900000000     0          
C289     C      0.011940000000     0.644820000000     0.294640000000     0          
C290     C      0.012500000000     0.681430000000     0.258330000000     0          
H291     H      0.018000000000     0.607200000000     0.287800000000     0          
H292     H      0.022200000000     0.669900000000     0.225100000000     0          
C293     C      0.511940000000     0.644820000000     0.794640000000     0          
C294     C      0.512500000000     0.681430000000     0.758330000000     0          
H295     H      0.518000000000     0.607200000000     0.787800000000     0          
H296     H      0.522200000000     0.669900000000     0.725100000000     0          
C297     C      0.988060000000     0.855180000000     0.794640000000     0          
C298     C      0.987500000000     0.818570000000     0.758330000000     0          
H299     H      0.982000000000     0.892800000000     0.787800000000     0          
H300     H      0.977800000000     0.830100000000     0.725100000000     0          
C301     C      0.488060000000     0.855180000000     0.294640000000     0          
C302     C      0.487500000000     0.818570000000     0.258330000000     0          
H303     H      0.482000000000     0.892800000000     0.287800000000     0          
H304     H      0.477800000000     0.830100000000     0.225100000000     0          
C305     C      0.011940000000     0.855180000000     0.205360000000     0          
C306     C      0.012500000000     0.818570000000     0.241670000000     0          
H307     H      0.018000000000     0.892800000000     0.212200000000     0          
H308     H      0.022200000000     0.830100000000     0.274900000000     0          
C309     C      0.511940000000     0.855180000000     0.705360000000     0          
C310     C      0.512500000000     0.818570000000     0.741670000000     0          
H311     H      0.518000000000     0.892800000000     0.712200000000     0          
H312     H      0.522200000000     0.830100000000     0.774900000000     0          
C313     C      0.988060000000     0.644820000000     0.705360000000     0          
C314     C      0.987500000000     0.681430000000     0.741670000000     0          
H315     H      0.982000000000     0.607200000000     0.712200000000     0          
H316     H      0.977800000000     0.669900000000     0.774900000000     0          
C317     C      0.488060000000     0.644820000000     0.205360000000     0          
C318     C      0.487500000000     0.681430000000     0.241670000000     0          
H319     H      0.482000000000     0.607200000000     0.212200000000     0          
H320     H      0.477800000000     0.669900000000     0.274900000000     0          
C321     C      0.644820000000     0.705360000000     0.988060000000     0          
C322     C      0.681430000000     0.741670000000     0.987500000000     0          
H323     H      0.607200000000     0.712200000000     0.982000000000     0          
H324     H      0.669900000000     0.774900000000     0.977800000000     0          
C325     C      0.144820000000     0.705360000000     0.488060000000     0          
C326     C      0.181430000000     0.741670000000     0.487500000000     0          
H327     H      0.107200000000     0.712200000000     0.482000000000     0          
H328     H      0.169900000000     0.774900000000     0.477800000000     0          
C329     C      0.144820000000     0.205360000000     0.988060000000     0          
C330     C      0.181430000000     0.241670000000     0.987500000000     0          
H331     H      0.107200000000     0.212200000000     0.982000000000     0          
H332     H      0.169900000000     0.274900000000     0.977800000000     0          
C333     C      0.855180000000     0.705360000000     0.511940000000     0          
C334     C      0.818570000000     0.741670000000     0.512500000000     0          
H335     H      0.892800000000     0.712200000000     0.518000000000     0          
H336     H      0.830100000000     0.774900000000     0.522200000000     0          
C337     C      0.355180000000     0.294640000000     0.988060000000     0          
C338     C      0.318570000000     0.258330000000     0.987500000000     0          
H339     H      0.392800000000     0.287800000000     0.982000000000     0          
H340     H      0.330100000000     0.225100000000     0.977800000000     0          
C341     C      0.355180000000     0.794640000000     0.488060000000     0          
C342     C      0.318570000000     0.758330000000     0.487500000000     0          
H343     H      0.392800000000     0.787800000000     0.482000000000     0          
H344     H      0.330100000000     0.725100000000     0.477800000000     0          
C345     C      0.855180000000     0.794640000000     0.988060000000     0          
C346     C      0.818570000000     0.758330000000     0.987500000000     0          
H347     H      0.892800000000     0.787800000000     0.982000000000     0          
H348     H      0.830100000000     0.725100000000     0.977800000000     0          
C349     C      0.644820000000     0.794640000000     0.511940000000     0          
C350     C      0.681430000000     0.758330000000     0.512500000000     0          
H351     H      0.607200000000     0.787800000000     0.518000000000     0          
H352     H      0.669900000000     0.725100000000     0.522200000000     0          
C353     C      0.705360000000     0.511940000000     0.855180000000     0          
C354     C      0.741670000000     0.512500000000     0.818570000000     0          
H355     H      0.712200000000     0.518000000000     0.892800000000     0          
H356     H      0.774900000000     0.522200000000     0.830100000000     0          
C357     C      0.705360000000     0.988060000000     0.644820000000     0          
C358     C      0.741670000000     0.987500000000     0.681430000000     0          
H359     H      0.712200000000     0.982000000000     0.607200000000     0          
H360     H      0.774900000000     0.977800000000     0.669900000000     0          
C361     C      0.205360000000     0.988060000000     0.144820000000     0          
C362     C      0.241670000000     0.987500000000     0.181430000000     0          
H363     H      0.212200000000     0.982000000000     0.107200000000     0          
H364     H      0.274900000000     0.977800000000     0.169900000000     0          
C365     C      0.205360000000     0.488060000000     0.644820000000     0          
C366     C      0.241670000000     0.487500000000     0.681430000000     0          
H367     H      0.212200000000     0.482000000000     0.607200000000     0          
H368     H      0.274900000000     0.477800000000     0.669900000000     0          
C369     C      0.794640000000     0.511940000000     0.644820000000     0          
C370     C      0.758330000000     0.512500000000     0.681430000000     0          
H371     H      0.787800000000     0.518000000000     0.607200000000     0          
H372     H      0.725100000000     0.522200000000     0.669900000000     0          
C373     C      0.294640000000     0.988060000000     0.355180000000     0          
C374     C      0.258330000000     0.987500000000     0.318570000000     0          
H375     H      0.287800000000     0.982000000000     0.392800000000     0          
H376     H      0.225100000000     0.977800000000     0.330100000000     0          
C377     C      0.294640000000     0.488060000000     0.855180000000     0          
C378     C      0.258330000000     0.487500000000     0.818570000000     0          
H379     H      0.287800000000     0.482000000000     0.892800000000     0          
H380     H      0.225100000000     0.477800000000     0.830100000000     0          
C381     C      0.794640000000     0.988060000000     0.855180000000     0          
C382     C      0.758330000000     0.987500000000     0.818570000000     0          
H383     H      0.787800000000     0.982000000000     0.892800000000     0          
H384     H      0.725100000000     0.977800000000     0.830100000000     0          
Zr385    Zr     0.407610000000     0.000000000000     0.500000000000     0          
Zr386    Zr     0.907610000000     0.000000000000     0.000000000000     0          
Zr387    Zr     0.907610000000     0.500000000000     0.500000000000     0          
Zr388    Zr     0.592390000000     0.000000000000     0.500000000000     0          
Zr389    Zr     0.092390000000     0.000000000000     0.000000000000     0          
Zr390    Zr     0.092390000000     0.500000000000     0.500000000000     0          
Zr391    Zr     0.592390000000     0.500000000000     0.000000000000     0          
Zr392    Zr     0.407610000000     0.500000000000     0.000000000000     0          
Zr393    Zr     0.500000000000     0.407610000000     0.000000000000     0          
Zr394    Zr     0.500000000000     0.907610000000     0.500000000000     0          
Zr395    Zr     0.500000000000     0.592390000000     0.000000000000     0          
Zr396    Zr     0.500000000000     0.092390000000     0.500000000000     0          
Zr397    Zr     0.000000000000     0.092390000000     0.000000000000     0          
Zr398    Zr     0.000000000000     0.907610000000     0.000000000000     0          
Zr399    Zr     0.000000000000     0.500000000000     0.407610000000     0          
Zr400    Zr     0.000000000000     0.000000000000     0.907610000000     0          
Zr401    Zr     0.500000000000     0.500000000000     0.907610000000     0          
Zr402    Zr     0.000000000000     0.500000000000     0.592390000000     0          
Zr403    Zr     0.000000000000     0.000000000000     0.092390000000     0          
Zr404    Zr     0.500000000000     0.500000000000     0.092390000000     0          
Zr405    Zr     0.500000000000     0.000000000000     0.592390000000     0          
Zr406    Zr     0.500000000000     0.000000000000     0.407610000000     0          
Zr407    Zr     0.000000000000     0.407610000000     0.500000000000     0          
Zr408    Zr     0.000000000000     0.592390000000     0.500000000000     0          
O409     O      0.368090000000     0.000000000000     0.427580000000     0          
O410     O      0.368090000000     0.500000000000     0.927580000000     0          
O411     O      0.868090000000     0.000000000000     0.927580000000     0          
O412     O      0.868090000000     0.500000000000     0.427580000000     0          
O413     O      0.631910000000     0.000000000000     0.427580000000     0          
O414     O      0.631910000000     0.500000000000     0.927580000000     0          
O415     O      0.131910000000     0.000000000000     0.927580000000     0          
O416     O      0.131910000000     0.500000000000     0.427580000000     0          
O417     O      0.631910000000     0.000000000000     0.572420000000     0          
O418     O      0.631910000000     0.500000000000     0.072420000000     0          
O419     O      0.131910000000     0.000000000000     0.072420000000     0          
O420     O      0.131910000000     0.500000000000     0.572420000000     0          
O421     O      0.368090000000     0.000000000000     0.572420000000     0          
O422     O      0.368090000000     0.500000000000     0.072420000000     0          
O423     O      0.868090000000     0.000000000000     0.072420000000     0          
O424     O      0.868090000000     0.500000000000     0.572420000000     0          
O425     O      0.427580000000     0.368090000000     0.000000000000     0          
O426     O      0.427580000000     0.868090000000     0.500000000000     0          
O427     O      0.927580000000     0.368090000000     0.500000000000     0          
O428     O      0.927580000000     0.868090000000     0.000000000000     0          
O429     O      0.427580000000     0.631910000000     0.000000000000     0          
O430     O      0.427580000000     0.131910000000     0.500000000000     0          
O431     O      0.927580000000     0.631910000000     0.500000000000     0          
O432     O      0.927580000000     0.131910000000     0.000000000000     0          
O433     O      0.572420000000     0.631910000000     0.000000000000     0          
O434     O      0.572420000000     0.131910000000     0.500000000000     0          
O435     O      0.072420000000     0.631910000000     0.500000000000     0          
O436     O      0.072420000000     0.131910000000     0.000000000000     0          
O437     O      0.572420000000     0.368090000000     0.000000000000     0          
O438     O      0.572420000000     0.868090000000     0.500000000000     0          
O439     O      0.072420000000     0.368090000000     0.500000000000     0          
O440     O      0.072420000000     0.868090000000     0.000000000000     0          
O441     O      0.000000000000     0.427580000000     0.368090000000     0          
O442     O      0.000000000000     0.927580000000     0.868090000000     0          
O443     O      0.500000000000     0.427580000000     0.868090000000     0          
O444     O      0.500000000000     0.927580000000     0.368090000000     0          
O445     O      0.000000000000     0.427580000000     0.631910000000     0          
O446     O      0.000000000000     0.927580000000     0.131910000000     0          
O447     O      0.500000000000     0.427580000000     0.131910000000     0          
O448     O      0.500000000000     0.927580000000     0.631910000000     0          
O449     O      0.000000000000     0.572420000000     0.631910000000     0          
O450     O      0.000000000000     0.072420000000     0.131910000000     0          
O451     O      0.500000000000     0.572420000000     0.131910000000     0          
O452     O      0.500000000000     0.072420000000     0.631910000000     0          
O453     O      0.000000000000     0.572420000000     0.368090000000     0          
O454     O      0.000000000000     0.072420000000     0.868090000000     0          
O455     O      0.500000000000     0.572420000000     0.868090000000     0          
O456     O      0.500000000000     0.072420000000     0.368090000000     0          
O457     O      0.000000000000     0.368090000000     0.572420000000     0          
O458     O      0.000000000000     0.868090000000     0.072420000000     0          
O459     O      0.500000000000     0.368090000000     0.072420000000     0          
O460     O      0.500000000000     0.868090000000     0.572420000000     0          
O461     O      0.000000000000     0.631910000000     0.572420000000     0          
O462     O      0.000000000000     0.131910000000     0.072420000000     0          
O463     O      0.500000000000     0.631910000000     0.072420000000     0          
O464     O      0.500000000000     0.131910000000     0.572420000000     0          
O465     O      0.000000000000     0.631910000000     0.427580000000     0          
O466     O      0.000000000000     0.131910000000     0.927580000000     0          
O467     O      0.500000000000     0.631910000000     0.927580000000     0          
O468     O      0.500000000000     0.131910000000     0.427580000000     0          
O469     O      0.000000000000     0.368090000000     0.427580000000     0          
O470     O      0.000000000000     0.868090000000     0.927580000000     0          
O471     O      0.500000000000     0.368090000000     0.927580000000     0          
O472     O      0.500000000000     0.868090000000     0.427580000000     0          
O473     O      0.368090000000     0.427580000000     0.000000000000     0          
O474     O      0.368090000000     0.927580000000     0.500000000000     0          
O475     O      0.868090000000     0.427580000000     0.500000000000     0          
O476     O      0.868090000000     0.927580000000     0.000000000000     0          
O477     O      0.631910000000     0.427580000000     0.000000000000     0          
O478     O      0.631910000000     0.927580000000     0.500000000000     0          
O479     O      0.131910000000     0.427580000000     0.500000000000     0          
O480     O      0.131910000000     0.927580000000     0.000000000000     0          
O481     O      0.631910000000     0.572420000000     0.000000000000     0          
O482     O      0.631910000000     0.072420000000     0.500000000000     0          
O483     O      0.131910000000     0.572420000000     0.500000000000     0          
O484     O      0.131910000000     0.072420000000     0.000000000000     0          
O485     O      0.368090000000     0.572420000000     0.000000000000     0          
O486     O      0.368090000000     0.072420000000     0.500000000000     0          
O487     O      0.868090000000     0.572420000000     0.500000000000     0          
O488     O      0.868090000000     0.072420000000     0.000000000000     0          
O489     O      0.427580000000     0.000000000000     0.631910000000     0          
O490     O      0.427580000000     0.500000000000     0.131910000000     0          
O491     O      0.927580000000     0.000000000000     0.131910000000     0          
O492     O      0.927580000000     0.500000000000     0.631910000000     0          
O493     O      0.427580000000     0.000000000000     0.368090000000     0          
O494     O      0.427580000000     0.500000000000     0.868090000000     0          
O495     O      0.927580000000     0.000000000000     0.868090000000     0          
O496     O      0.927580000000     0.500000000000     0.368090000000     0          
O497     O      0.572420000000     0.000000000000     0.368090000000     0          
O498     O      0.572420000000     0.500000000000     0.868090000000     0          
O499     O      0.072420000000     0.000000000000     0.868090000000     0          
O500     O      0.072420000000     0.500000000000     0.368090000000     0          
O501     O      0.572420000000     0.000000000000     0.631910000000     0          
O502     O      0.572420000000     0.500000000000     0.131910000000     0          
O503     O      0.072420000000     0.000000000000     0.131910000000     0          
O504     O      0.072420000000     0.500000000000     0.631910000000     0          
C505     C      0.382690000000     0.000000000000     0.382690000000     0          
C506     C      0.343390000000     0.000000000000     0.343390000000     0          
C507     C      0.269580000000     0.000000000000     0.269580000000     0          
C508     C      0.382690000000     0.500000000000     0.882690000000     0          
C509     C      0.343390000000     0.500000000000     0.843390000000     0          
C510     C      0.269580000000     0.500000000000     0.769580000000     0          
C511     C      0.882690000000     0.000000000000     0.882690000000     0          
C512     C      0.843390000000     0.000000000000     0.843390000000     0          
C513     C      0.769580000000     0.000000000000     0.769580000000     0          
C514     C      0.882690000000     0.500000000000     0.382690000000     0          
C515     C      0.843390000000     0.500000000000     0.343390000000     0          
C516     C      0.769580000000     0.500000000000     0.269580000000     0          
C517     C      0.617310000000     0.000000000000     0.382690000000     0          
C518     C      0.656610000000     0.000000000000     0.343390000000     0          
C519     C      0.730420000000     0.000000000000     0.269580000000     0          
C520     C      0.617310000000     0.500000000000     0.882690000000     0          
C521     C      0.656610000000     0.500000000000     0.843390000000     0          
C522     C      0.730420000000     0.500000000000     0.769580000000     0          
C523     C      0.117310000000     0.000000000000     0.882690000000     0          
C524     C      0.156610000000     0.000000000000     0.843390000000     0          
C525     C      0.230420000000     0.000000000000     0.769580000000     0          
C526     C      0.117310000000     0.500000000000     0.382690000000     0          
C527     C      0.156610000000     0.500000000000     0.343390000000     0          
C528     C      0.230420000000     0.500000000000     0.269580000000     0          
C529     C      0.617310000000     0.000000000000     0.617310000000     0          
C530     C      0.656610000000     0.000000000000     0.656610000000     0          
C531     C      0.730420000000     0.000000000000     0.730420000000     0          
C532     C      0.617310000000     0.500000000000     0.117310000000     0          
C533     C      0.656610000000     0.500000000000     0.156610000000     0          
C534     C      0.730420000000     0.500000000000     0.230420000000     0          
C535     C      0.117310000000     0.000000000000     0.117310000000     0          
C536     C      0.156610000000     0.000000000000     0.156610000000     0          
C537     C      0.230420000000     0.000000000000     0.230420000000     0          
C538     C      0.117310000000     0.500000000000     0.617310000000     0          
C539     C      0.156610000000     0.500000000000     0.656610000000     0          
C540     C      0.230420000000     0.500000000000     0.730420000000     0          
C541     C      0.382690000000     0.000000000000     0.617310000000     0          
C542     C      0.343390000000     0.000000000000     0.656610000000     0          
C543     C      0.269580000000     0.000000000000     0.730420000000     0          
C544     C      0.382690000000     0.500000000000     0.117310000000     0          
C545     C      0.343390000000     0.500000000000     0.156610000000     0          
C546     C      0.269580000000     0.500000000000     0.230420000000     0          
C547     C      0.882690000000     0.000000000000     0.117310000000     0          
C548     C      0.843390000000     0.000000000000     0.156610000000     0          
C549     C      0.769580000000     0.000000000000     0.230420000000     0          
C550     C      0.882690000000     0.500000000000     0.617310000000     0          
C551     C      0.843390000000     0.500000000000     0.656610000000     0          
C552     C      0.769580000000     0.500000000000     0.730420000000     0          
C553     C      0.382690000000     0.382690000000     0.000000000000     0          
C554     C      0.343390000000     0.343390000000     0.000000000000     0          
C555     C      0.269580000000     0.269580000000     0.000000000000     0          
C556     C      0.382690000000     0.882690000000     0.500000000000     0          
C557     C      0.343390000000     0.843390000000     0.500000000000     0          
C558     C      0.269580000000     0.769580000000     0.500000000000     0          
C559     C      0.882690000000     0.382690000000     0.500000000000     0          
C560     C      0.843390000000     0.343390000000     0.500000000000     0          
C561     C      0.769580000000     0.269580000000     0.500000000000     0          
C562     C      0.882690000000     0.882690000000     0.000000000000     0          
C563     C      0.843390000000     0.843390000000     0.000000000000     0          
C564     C      0.769580000000     0.769580000000     0.000000000000     0          
C565     C      0.382690000000     0.617310000000     0.000000000000     0          
C566     C      0.343390000000     0.656610000000     0.000000000000     0          
C567     C      0.269580000000     0.730420000000     0.000000000000     0          
C568     C      0.382690000000     0.117310000000     0.500000000000     0          
C569     C      0.343390000000     0.156610000000     0.500000000000     0          
C570     C      0.269580000000     0.230420000000     0.500000000000     0          
C571     C      0.882690000000     0.617310000000     0.500000000000     0          
C572     C      0.843390000000     0.656610000000     0.500000000000     0          
C573     C      0.769580000000     0.730420000000     0.500000000000     0          
C574     C      0.882690000000     0.117310000000     0.000000000000     0          
C575     C      0.843390000000     0.156610000000     0.000000000000     0          
C576     C      0.769580000000     0.230420000000     0.000000000000     0          
C577     C      0.617310000000     0.617310000000     0.000000000000     0          
C578     C      0.656610000000     0.656610000000     0.000000000000     0          
C579     C      0.730420000000     0.730420000000     0.000000000000     0          
C580     C      0.617310000000     0.117310000000     0.500000000000     0          
C581     C      0.656610000000     0.156610000000     0.500000000000     0          
C582     C      0.730420000000     0.230420000000     0.500000000000     0          
C583     C      0.117310000000     0.617310000000     0.500000000000     0          
C584     C      0.156610000000     0.656610000000     0.500000000000     0          
C585     C      0.230420000000     0.730420000000     0.500000000000     0          
C586     C      0.117310000000     0.117310000000     0.000000000000     0          
C587     C      0.156610000000     0.156610000000     0.000000000000     0          
C588     C      0.230420000000     0.230420000000     0.000000000000     0          
C589     C      0.617310000000     0.382690000000     0.000000000000     0          
C590     C      0.656610000000     0.343390000000     0.000000000000     0          
C591     C      0.730420000000     0.269580000000     0.000000000000     0          
C592     C      0.617310000000     0.882690000000     0.500000000000     0          
C593     C      0.656610000000     0.843390000000     0.500000000000     0          
C594     C      0.730420000000     0.769580000000     0.500000000000     0          
C595     C      0.117310000000     0.382690000000     0.500000000000     0          
C596     C      0.156610000000     0.343390000000     0.500000000000     0          
C597     C      0.230420000000     0.269580000000     0.500000000000     0          
C598     C      0.117310000000     0.882690000000     0.000000000000     0          
C599     C      0.156610000000     0.843390000000     0.000000000000     0          
C600     C      0.230420000000     0.769580000000     0.000000000000     0          
C601     C      0.000000000000     0.382690000000     0.382690000000     0          
C602     C      0.000000000000     0.343390000000     0.343390000000     0          
C603     C      0.000000000000     0.269580000000     0.269580000000     0          
C604     C      0.000000000000     0.882690000000     0.882690000000     0          
C605     C      0.000000000000     0.843390000000     0.843390000000     0          
C606     C      0.000000000000     0.769580000000     0.769580000000     0          
C607     C      0.500000000000     0.382690000000     0.882690000000     0          
C608     C      0.500000000000     0.343390000000     0.843390000000     0          
C609     C      0.500000000000     0.269580000000     0.769580000000     0          
C610     C      0.500000000000     0.882690000000     0.382690000000     0          
C611     C      0.500000000000     0.843390000000     0.343390000000     0          
C612     C      0.500000000000     0.769580000000     0.269580000000     0          
C613     C      0.000000000000     0.382690000000     0.617310000000     0          
C614     C      0.000000000000     0.343390000000     0.656610000000     0          
C615     C      0.000000000000     0.269580000000     0.730420000000     0          
C616     C      0.000000000000     0.882690000000     0.117310000000     0          
C617     C      0.000000000000     0.843390000000     0.156610000000     0          
C618     C      0.000000000000     0.769580000000     0.230420000000     0          
C619     C      0.500000000000     0.382690000000     0.117310000000     0          
C620     C      0.500000000000     0.343390000000     0.156610000000     0          
C621     C      0.500000000000     0.269580000000     0.230420000000     0          
C622     C      0.500000000000     0.882690000000     0.617310000000     0          
C623     C      0.500000000000     0.843390000000     0.656610000000     0          
C624     C      0.500000000000     0.769580000000     0.730420000000     0          
C625     C      0.000000000000     0.617310000000     0.617310000000     0          
C626     C      0.000000000000     0.656610000000     0.656610000000     0          
C627     C      0.000000000000     0.730420000000     0.730420000000     0          
C628     C      0.000000000000     0.117310000000     0.117310000000     0          
C629     C      0.000000000000     0.156610000000     0.156610000000     0          
C630     C      0.000000000000     0.230420000000     0.230420000000     0          
C631     C      0.500000000000     0.617310000000     0.117310000000     0          
C632     C      0.500000000000     0.656610000000     0.156610000000     0          
C633     C      0.500000000000     0.730420000000     0.230420000000     0          
C634     C      0.500000000000     0.117310000000     0.617310000000     0          
C635     C      0.500000000000     0.156610000000     0.656610000000     0          
C636     C      0.500000000000     0.230420000000     0.730420000000     0          
C637     C      0.000000000000     0.617310000000     0.382690000000     0          
C638     C      0.000000000000     0.656610000000     0.343390000000     0          
C639     C      0.000000000000     0.730420000000     0.269580000000     0          
C640     C      0.000000000000     0.117310000000     0.882690000000     0          
C641     C      0.000000000000     0.156610000000     0.843390000000     0          
C642     C      0.000000000000     0.230420000000     0.769580000000     0          
C643     C      0.500000000000     0.617310000000     0.882690000000     0          
C644     C      0.500000000000     0.656610000000     0.843390000000     0          
C645     C      0.500000000000     0.730420000000     0.769580000000     0          
C646     C      0.500000000000     0.117310000000     0.382690000000     0          
C647     C      0.500000000000     0.156610000000     0.343390000000     0          
C648     C      0.500000000000     0.230420000000     0.269580000000     0          
O649     O      0.461600000000     0.038400000000     0.538400000000     0          
O650     O      0.448100000000     0.051900000000     0.551900000000     0          
O651     O      0.538400000000     0.961600000000     0.538400000000     0          
O652     O      0.551900000000     0.948100000000     0.551900000000     0          
O653     O      0.538400000000     0.038400000000     0.461600000000     0          
O654     O      0.551900000000     0.051900000000     0.448100000000     0          
O655     O      0.461600000000     0.961600000000     0.461600000000     0          
O656     O      0.448100000000     0.948100000000     0.448100000000     0          
O657     O      0.538400000000     0.461600000000     0.038400000000     0          
O658     O      0.551900000000     0.448100000000     0.051900000000     0          
O659     O      0.538400000000     0.538400000000     0.961600000000     0          
O660     O      0.551900000000     0.551900000000     0.948100000000     0          
O661     O      0.461600000000     0.538400000000     0.038400000000     0          
O662     O      0.448100000000     0.551900000000     0.051900000000     0          
O663     O      0.461600000000     0.461600000000     0.961600000000     0          
O664     O      0.448100000000     0.448100000000     0.948100000000     0          
O665     O      0.038400000000     0.538400000000     0.461600000000     0          
O666     O      0.051900000000     0.551900000000     0.448100000000     0          
O667     O      0.038400000000     0.038400000000     0.961600000000     0          
O668     O      0.051900000000     0.051900000000     0.948100000000     0          
O669     O      0.961600000000     0.538400000000     0.538400000000     0          
O670     O      0.948100000000     0.551900000000     0.551900000000     0          
O671     O      0.961600000000     0.038400000000     0.038400000000     0          
O672     O      0.948100000000     0.051900000000     0.051900000000     0          
O673     O      0.038400000000     0.461600000000     0.538400000000     0          
O674     O      0.051900000000     0.448100000000     0.551900000000     0          
O675     O      0.038400000000     0.961600000000     0.038400000000     0          
O676     O      0.051900000000     0.948100000000     0.051900000000     0          
O677     O      0.961600000000     0.461600000000     0.461600000000     0          
O678     O      0.948100000000     0.448100000000     0.448100000000     0          
O679     O      0.961600000000     0.961600000000     0.961600000000     0          
O680     O      0.948100000000     0.948100000000     0.948100000000     0          
O681     O      0.038400000000     0.461600000000     0.461600000000     0          
O682     O      0.051900000000     0.448100000000     0.448100000000     0          
O683     O      0.038400000000     0.961600000000     0.961600000000     0          
O684     O      0.051900000000     0.948100000000     0.948100000000     0          
O685     O      0.961600000000     0.538400000000     0.461600000000     0          
O686     O      0.948100000000     0.551900000000     0.448100000000     0          
O687     O      0.961600000000     0.038400000000     0.961600000000     0          
O688     O      0.948100000000     0.051900000000     0.948100000000     0          
O689     O      0.038400000000     0.538400000000     0.538400000000     0          
O690     O      0.051900000000     0.551900000000     0.551900000000     0          
O691     O      0.038400000000     0.038400000000     0.038400000000     0          
O692     O      0.051900000000     0.051900000000     0.051900000000     0          
O693     O      0.961600000000     0.461600000000     0.538400000000     0          
O694     O      0.948100000000     0.448100000000     0.551900000000     0          
O695     O      0.961600000000     0.961600000000     0.038400000000     0          
O696     O      0.948100000000     0.948100000000     0.051900000000     0          
O697     O      0.461600000000     0.538400000000     0.961600000000     0          
O698     O      0.448100000000     0.551900000000     0.948100000000     0          
O699     O      0.538400000000     0.538400000000     0.038400000000     0          
O700     O      0.551900000000     0.551900000000     0.051900000000     0          
O701     O      0.538400000000     0.461600000000     0.961600000000     0          
O702     O      0.551900000000     0.448100000000     0.948100000000     0          
O703     O      0.461600000000     0.461600000000     0.038400000000     0          
O704     O      0.448100000000     0.448100000000     0.051900000000     0          
O705     O      0.538400000000     0.038400000000     0.538400000000     0          
O706     O      0.551900000000     0.051900000000     0.551900000000     0          
O707     O      0.538400000000     0.961600000000     0.461600000000     0          
O708     O      0.551900000000     0.948100000000     0.448100000000     0          
O709     O      0.461600000000     0.038400000000     0.461600000000     0          
O710     O      0.448100000000     0.051900000000     0.448100000000     0          
O711     O      0.461600000000     0.961600000000     0.538400000000     0          
O712     O      0.448100000000     0.948100000000     0.551900000000     0          


