data_WIZMAV12

_audit_creation_method RASPA-1.0
_audit_creation_date 2020-11-2
_audit_author_name 'Rocio Bueno-Perez'

_cell_length_a    26.768
_cell_length_b    26.768
_cell_length_c    26.768
_cell_angle_alpha 90
_cell_angle_beta  90
_cell_angle_gamma 90
_cell_volume      19180

_symmetry_cell_setting          triclinic
_symmetry_space_group_name_Hall 'P 1'
_symmetry_space_group_name_H-M  'P 1'
_symmetry_Int_Tables_number     1

_symmetry_equiv_pos_as_xyz 'x,y,z'

loop_
_atom_site_label
_atom_site_type_symbol
_atom_site_fract_x
_atom_site_fract_y
_atom_site_fract_z
_atom_site_charge
C1       C      0.680600000000     0.758500000000     0.022900000000     0          
H2       H      0.674200000000     0.727000000000     0.037900000000     0          
C3       C      0.643900000000     0.795200000000     0.021700000000     0          
H4       H      0.611400000000     0.789000000000     0.034700000000     0          
C5       C      0.819400000000     0.741500000000     0.022900000000     0          
H6       H      0.825800000000     0.773000000000     0.037900000000     0          
C7       C      0.856100000000     0.704800000000     0.021700000000     0          
H8       H      0.888600000000     0.711000000000     0.034700000000     0          
C9       C      0.319400000000     0.758500000000     0.977100000000     0          
H10      H      0.325800000000     0.727000000000     0.962100000000     0          
C11      C      0.356100000000     0.795200000000     0.978300000000     0          
H12      H      0.388600000000     0.789000000000     0.965300000000     0          
C13      C      0.180600000000     0.741500000000     0.977100000000     0          
H14      H      0.174200000000     0.773000000000     0.962100000000     0          
C15      C      0.143900000000     0.704800000000     0.978300000000     0          
H16      H      0.111400000000     0.711000000000     0.965300000000     0          
C17      C      0.022900000000     0.180600000000     0.258500000000     0          
H18      H      0.037900000000     0.174200000000     0.227000000000     0          
C19      C      0.021700000000     0.143900000000     0.295200000000     0          
H20      H      0.034700000000     0.111400000000     0.289000000000     0          
C21      C      0.522900000000     0.180600000000     0.758500000000     0          
H22      H      0.537900000000     0.174200000000     0.727000000000     0          
C23      C      0.521700000000     0.143900000000     0.795200000000     0          
H24      H      0.534700000000     0.111400000000     0.789000000000     0          
C25      C      0.022900000000     0.319400000000     0.241500000000     0          
H26      H      0.037900000000     0.325800000000     0.273000000000     0          
C27      C      0.021700000000     0.356100000000     0.204800000000     0          
H28      H      0.034700000000     0.388600000000     0.211000000000     0          
C29      C      0.522900000000     0.319400000000     0.741500000000     0          
H30      H      0.537900000000     0.325800000000     0.773000000000     0          
C31      C      0.521700000000     0.356100000000     0.704800000000     0          
H32      H      0.534700000000     0.388600000000     0.711000000000     0          
C33      C      0.477100000000     0.819400000000     0.758500000000     0          
H34      H      0.462100000000     0.825800000000     0.727000000000     0          
C35      C      0.478300000000     0.856100000000     0.795200000000     0          
H36      H      0.465300000000     0.888600000000     0.789000000000     0          
C37      C      0.758500000000     0.680600000000     0.977100000000     0          
H38      H      0.727000000000     0.674200000000     0.962100000000     0          
C39      C      0.795200000000     0.643900000000     0.978300000000     0          
H40      H      0.789000000000     0.611400000000     0.965300000000     0          
C41      C      0.741500000000     0.819400000000     0.977100000000     0          
H42      H      0.773000000000     0.825800000000     0.962100000000     0          
C43      C      0.704800000000     0.856100000000     0.978300000000     0          
H44      H      0.711000000000     0.888600000000     0.965300000000     0          
C45      C      0.258500000000     0.819400000000     0.022900000000     0          
H46      H      0.227000000000     0.825800000000     0.037900000000     0          
C47      C      0.295200000000     0.856100000000     0.021700000000     0          
H48      H      0.289000000000     0.888600000000     0.034700000000     0          
C49      C      0.241500000000     0.680600000000     0.022900000000     0          
H50      H      0.273000000000     0.674200000000     0.037900000000     0          
C51      C      0.204800000000     0.643900000000     0.021700000000     0          
H52      H      0.211000000000     0.611400000000     0.034700000000     0          
C53      C      0.522900000000     0.758500000000     0.819400000000     0          
H54      H      0.537900000000     0.727000000000     0.825800000000     0          
C55      C      0.521700000000     0.795200000000     0.856100000000     0          
H56      H      0.534700000000     0.789000000000     0.888600000000     0          
C57      C      0.977100000000     0.258500000000     0.180600000000     0          
H58      H      0.962100000000     0.227000000000     0.174200000000     0          
C59      C      0.978300000000     0.295200000000     0.143900000000     0          
H60      H      0.965300000000     0.289000000000     0.111400000000     0          
C61      C      0.477100000000     0.258500000000     0.680600000000     0          
H62      H      0.462100000000     0.227000000000     0.674200000000     0          
C63      C      0.478300000000     0.295200000000     0.643900000000     0          
H64      H      0.465300000000     0.289000000000     0.611400000000     0          
C65      C      0.977100000000     0.241500000000     0.319400000000     0          
H66      H      0.962100000000     0.273000000000     0.325800000000     0          
C67      C      0.978300000000     0.204800000000     0.356100000000     0          
H68      H      0.965300000000     0.211000000000     0.388600000000     0          
C69      C      0.477100000000     0.241500000000     0.819400000000     0          
H70      H      0.462100000000     0.273000000000     0.825800000000     0          
C71      C      0.478300000000     0.204800000000     0.856100000000     0          
H72      H      0.465300000000     0.211000000000     0.888600000000     0          
C73      C      0.680600000000     0.258500000000     0.477100000000     0          
H74      H      0.674200000000     0.227000000000     0.462100000000     0          
C75      C      0.643900000000     0.295200000000     0.478300000000     0          
H76      H      0.611400000000     0.289000000000     0.465300000000     0          
C77      C      0.680600000000     0.741500000000     0.522900000000     0          
H78      H      0.674200000000     0.773000000000     0.537900000000     0          
C79      C      0.643900000000     0.704800000000     0.521700000000     0          
H80      H      0.611400000000     0.711000000000     0.534700000000     0          
C81      C      0.680600000000     0.241500000000     0.022900000000     0          
H82      H      0.674200000000     0.273000000000     0.037900000000     0          
C83      C      0.643900000000     0.204800000000     0.021700000000     0          
H84      H      0.611400000000     0.211000000000     0.034700000000     0          
C85      C      0.819400000000     0.258500000000     0.022900000000     0          
H86      H      0.825800000000     0.227000000000     0.037900000000     0          
C87      C      0.856100000000     0.295200000000     0.021700000000     0          
H88      H      0.888600000000     0.289000000000     0.034700000000     0          
C89      C      0.819400000000     0.758500000000     0.522900000000     0          
H90      H      0.825800000000     0.727000000000     0.537900000000     0          
C91      C      0.856100000000     0.795200000000     0.521700000000     0          
H92      H      0.888600000000     0.789000000000     0.534700000000     0          
C93      C      0.977100000000     0.819400000000     0.741500000000     0          
H94      H      0.962100000000     0.825800000000     0.773000000000     0          
C95      C      0.978300000000     0.856100000000     0.704800000000     0          
H96      H      0.965300000000     0.888600000000     0.711000000000     0          
C97      C      0.977100000000     0.680600000000     0.758500000000     0          
H98      H      0.962100000000     0.674200000000     0.727000000000     0          
C99      C      0.978300000000     0.643900000000     0.795200000000     0          
H100     H      0.965300000000     0.611400000000     0.789000000000     0          
C101     C      0.522900000000     0.319400000000     0.258500000000     0          
H102     H      0.537900000000     0.325800000000     0.227000000000     0          
C103     C      0.521700000000     0.356100000000     0.295200000000     0          
H104     H      0.534700000000     0.388600000000     0.289000000000     0          
C105     C      0.741500000000     0.977100000000     0.819400000000     0          
H106     H      0.773000000000     0.962100000000     0.825800000000     0          
C107     C      0.704800000000     0.978300000000     0.856100000000     0          
H108     H      0.711000000000     0.965300000000     0.888600000000     0          
C109     C      0.741500000000     0.477100000000     0.319400000000     0          
H110     H      0.773000000000     0.462100000000     0.325800000000     0          
C111     C      0.704800000000     0.478300000000     0.356100000000     0          
H112     H      0.711000000000     0.465300000000     0.388600000000     0          
C113     C      0.241500000000     0.977100000000     0.319400000000     0          
H114     H      0.273000000000     0.962100000000     0.325800000000     0          
C115     C      0.204800000000     0.978300000000     0.356100000000     0          
H116     H      0.211000000000     0.965300000000     0.388600000000     0          
C117     C      0.258500000000     0.977100000000     0.180600000000     0          
H118     H      0.227000000000     0.962100000000     0.174200000000     0          
C119     C      0.295200000000     0.978300000000     0.143900000000     0          
H120     H      0.289000000000     0.965300000000     0.111400000000     0          
C121     C      0.758500000000     0.977100000000     0.680600000000     0          
H122     H      0.727000000000     0.962100000000     0.674200000000     0          
C123     C      0.795200000000     0.978300000000     0.643900000000     0          
H124     H      0.789000000000     0.965300000000     0.611400000000     0          
C125     C      0.758500000000     0.477100000000     0.180600000000     0          
H126     H      0.727000000000     0.462100000000     0.174200000000     0          
C127     C      0.795200000000     0.478300000000     0.143900000000     0          
H128     H      0.789000000000     0.465300000000     0.111400000000     0          
C129     C      0.741500000000     0.522900000000     0.680600000000     0          
H130     H      0.773000000000     0.537900000000     0.674200000000     0          
C131     C      0.704800000000     0.521700000000     0.643900000000     0          
H132     H      0.711000000000     0.534700000000     0.611400000000     0          
C133     C      0.758500000000     0.522900000000     0.819400000000     0          
H134     H      0.727000000000     0.537900000000     0.825800000000     0          
C135     C      0.795200000000     0.521700000000     0.856100000000     0          
H136     H      0.789000000000     0.534700000000     0.888600000000     0          
C137     C      0.741500000000     0.319400000000     0.522900000000     0          
H138     H      0.773000000000     0.325800000000     0.537900000000     0          
C139     C      0.704800000000     0.356100000000     0.521700000000     0          
H140     H      0.711000000000     0.388600000000     0.534700000000     0          
C141     C      0.741500000000     0.180600000000     0.977100000000     0          
H142     H      0.773000000000     0.174200000000     0.962100000000     0          
C143     C      0.704800000000     0.143900000000     0.978300000000     0          
H144     H      0.711000000000     0.111400000000     0.965300000000     0          
C145     C      0.741500000000     0.680600000000     0.477100000000     0          
H146     H      0.773000000000     0.674200000000     0.462100000000     0          
C147     C      0.704800000000     0.643900000000     0.478300000000     0          
H148     H      0.711000000000     0.611400000000     0.465300000000     0          
C149     C      0.758500000000     0.819400000000     0.477100000000     0          
H150     H      0.727000000000     0.825800000000     0.462100000000     0          
C151     C      0.795200000000     0.856100000000     0.478300000000     0          
H152     H      0.789000000000     0.888600000000     0.465300000000     0          
C153     C      0.758500000000     0.319400000000     0.977100000000     0          
H154     H      0.727000000000     0.325800000000     0.962100000000     0          
C155     C      0.795200000000     0.356100000000     0.978300000000     0          
H156     H      0.789000000000     0.388600000000     0.965300000000     0          
C157     C      0.819400000000     0.477100000000     0.758500000000     0          
H158     H      0.825800000000     0.462100000000     0.727000000000     0          
C159     C      0.856100000000     0.478300000000     0.795200000000     0          
H160     H      0.888600000000     0.465300000000     0.789000000000     0          
C161     C      0.680600000000     0.477100000000     0.741500000000     0          
H162     H      0.674200000000     0.462100000000     0.773000000000     0          
C163     C      0.643900000000     0.478300000000     0.704800000000     0          
H164     H      0.611400000000     0.465300000000     0.711000000000     0          
C165     C      0.180600000000     0.022900000000     0.258500000000     0          
H166     H      0.174200000000     0.037900000000     0.227000000000     0          
C167     C      0.143900000000     0.021700000000     0.295200000000     0          
H168     H      0.111400000000     0.034700000000     0.289000000000     0          
C169     C      0.680600000000     0.022900000000     0.758500000000     0          
H170     H      0.674200000000     0.037900000000     0.727000000000     0          
C171     C      0.643900000000     0.021700000000     0.795200000000     0          
H172     H      0.611400000000     0.034700000000     0.789000000000     0          
C173     C      0.680600000000     0.522900000000     0.258500000000     0          
H174     H      0.674200000000     0.537900000000     0.227000000000     0          
C175     C      0.643900000000     0.521700000000     0.295200000000     0          
H176     H      0.611400000000     0.534700000000     0.289000000000     0          
C177     C      0.819400000000     0.022900000000     0.741500000000     0          
H178     H      0.825800000000     0.037900000000     0.773000000000     0          
C179     C      0.856100000000     0.021700000000     0.704800000000     0          
H180     H      0.888600000000     0.034700000000     0.711000000000     0          
C181     C      0.819400000000     0.522900000000     0.241500000000     0          
H182     H      0.825800000000     0.537900000000     0.273000000000     0          
C183     C      0.856100000000     0.521700000000     0.204800000000     0          
H184     H      0.888600000000     0.534700000000     0.211000000000     0          
C185     C      0.319400000000     0.022900000000     0.241500000000     0          
H186     H      0.325800000000     0.037900000000     0.273000000000     0          
C187     C      0.356100000000     0.021700000000     0.204800000000     0          
H188     H      0.388600000000     0.034700000000     0.211000000000     0          
C189     C      0.477100000000     0.258500000000     0.319400000000     0          
H190     H      0.462100000000     0.227000000000     0.325800000000     0          
C191     C      0.478300000000     0.295200000000     0.356100000000     0          
H192     H      0.465300000000     0.289000000000     0.388600000000     0          
C193     C      0.022900000000     0.741500000000     0.819400000000     0          
H194     H      0.037900000000     0.773000000000     0.825800000000     0          
C195     C      0.021700000000     0.704800000000     0.856100000000     0          
H196     H      0.034700000000     0.711000000000     0.888600000000     0          
C197     C      0.022900000000     0.758500000000     0.680600000000     0          
H198     H      0.037900000000     0.727000000000     0.674200000000     0          
C199     C      0.021700000000     0.795200000000     0.643900000000     0          
H200     H      0.034700000000     0.789000000000     0.611400000000     0          
Zr201    Zr     0.000000000000     0.407780000000     0.000000000000     0          
Zr202    Zr     0.000000000000     0.907780000000     0.500000000000     0          
Zr203    Zr     0.500000000000     0.407780000000     0.500000000000     0          
Zr204    Zr     0.500000000000     0.907780000000     0.000000000000     0          
Zr205    Zr     0.000000000000     0.592220000000     0.000000000000     0          
Zr206    Zr     0.000000000000     0.092220000000     0.500000000000     0          
Zr207    Zr     0.500000000000     0.592220000000     0.500000000000     0          
Zr208    Zr     0.500000000000     0.092220000000     0.000000000000     0          
Zr209    Zr     0.000000000000     0.000000000000     0.407780000000     0          
Zr210    Zr     0.000000000000     0.500000000000     0.907780000000     0          
Zr211    Zr     0.500000000000     0.000000000000     0.907780000000     0          
Zr212    Zr     0.500000000000     0.500000000000     0.407780000000     0          
Zr213    Zr     0.000000000000     0.000000000000     0.592220000000     0          
Zr214    Zr     0.000000000000     0.500000000000     0.092220000000     0          
Zr215    Zr     0.500000000000     0.000000000000     0.092220000000     0          
Zr216    Zr     0.500000000000     0.500000000000     0.592220000000     0          
Zr217    Zr     0.407780000000     0.000000000000     0.000000000000     0          
Zr218    Zr     0.407780000000     0.500000000000     0.500000000000     0          
Zr219    Zr     0.907780000000     0.000000000000     0.500000000000     0          
Zr220    Zr     0.907780000000     0.500000000000     0.000000000000     0          
Zr221    Zr     0.592220000000     0.000000000000     0.000000000000     0          
Zr222    Zr     0.592220000000     0.500000000000     0.500000000000     0          
Zr223    Zr     0.092220000000     0.000000000000     0.500000000000     0          
Zr224    Zr     0.092220000000     0.500000000000     0.000000000000     0          
O225     O      0.072140000000     0.367030000000     0.000000000000     0          
C226     C      0.142900000000     0.294000000000     0.000000000000     0          
H227     H      0.108500000000     0.285300000000     0.000000000000     0          
C228     C      0.180100000000     0.255600000000     0.000000000000     0          
H229     H      0.170600000000     0.221300000000     0.000000000000     0          
O230     O      0.072140000000     0.867030000000     0.500000000000     0          
C231     C      0.142900000000     0.794000000000     0.500000000000     0          
H232     H      0.108500000000     0.785300000000     0.500000000000     0          
C233     C      0.180100000000     0.755600000000     0.500000000000     0          
H234     H      0.170600000000     0.721300000000     0.500000000000     0          
O235     O      0.572140000000     0.367030000000     0.500000000000     0          
O236     O      0.572140000000     0.867030000000     0.000000000000     0          
O237     O      0.927860000000     0.632970000000     0.000000000000     0          
O238     O      0.927860000000     0.132970000000     0.500000000000     0          
C239     C      0.857100000000     0.206000000000     0.500000000000     0          
H240     H      0.891500000000     0.214700000000     0.500000000000     0          
C241     C      0.819900000000     0.244400000000     0.500000000000     0          
H242     H      0.829400000000     0.278700000000     0.500000000000     0          
O243     O      0.427860000000     0.632970000000     0.500000000000     0          
C244     C      0.357100000000     0.706000000000     0.500000000000     0          
H245     H      0.391500000000     0.714700000000     0.500000000000     0          
C246     C      0.319900000000     0.744400000000     0.500000000000     0          
H247     H      0.329400000000     0.778700000000     0.500000000000     0          
O248     O      0.427860000000     0.132970000000     0.000000000000     0          
C249     C      0.357100000000     0.206000000000     0.000000000000     0          
H250     H      0.391500000000     0.214700000000     0.000000000000     0          
C251     C      0.319900000000     0.244400000000     0.000000000000     0          
H252     H      0.329400000000     0.278700000000     0.000000000000     0          
O253     O      0.927860000000     0.367030000000     0.000000000000     0          
O254     O      0.927860000000     0.867030000000     0.500000000000     0          
O255     O      0.427860000000     0.367030000000     0.500000000000     0          
C256     C      0.357100000000     0.294000000000     0.500000000000     0          
H257     H      0.391500000000     0.285300000000     0.500000000000     0          
C258     C      0.319900000000     0.255600000000     0.500000000000     0          
H259     H      0.329400000000     0.221300000000     0.500000000000     0          
O260     O      0.427860000000     0.867030000000     0.000000000000     0          
O261     O      0.072140000000     0.632970000000     0.000000000000     0          
O262     O      0.072140000000     0.132970000000     0.500000000000     0          
C263     C      0.142900000000     0.206000000000     0.500000000000     0          
H264     H      0.108500000000     0.214700000000     0.500000000000     0          
C265     C      0.180100000000     0.244400000000     0.500000000000     0          
H266     H      0.170600000000     0.278700000000     0.500000000000     0          
O267     O      0.572140000000     0.632970000000     0.500000000000     0          
O268     O      0.572140000000     0.132970000000     0.000000000000     0          
O269     O      0.000000000000     0.072140000000     0.367030000000     0          
O270     O      0.000000000000     0.572140000000     0.867030000000     0          
O271     O      0.500000000000     0.072140000000     0.867030000000     0          
O272     O      0.500000000000     0.572140000000     0.367030000000     0          
C273     C      0.500000000000     0.642900000000     0.294000000000     0          
H274     H      0.500000000000     0.608500000000     0.285300000000     0          
C275     C      0.500000000000     0.680100000000     0.255600000000     0          
H276     H      0.500000000000     0.670600000000     0.221300000000     0          
O277     O      0.000000000000     0.927860000000     0.632970000000     0          
O278     O      0.000000000000     0.427860000000     0.132970000000     0          
O279     O      0.500000000000     0.927860000000     0.132970000000     0          
C280     C      0.500000000000     0.857100000000     0.206000000000     0          
H281     H      0.500000000000     0.891500000000     0.214700000000     0          
C282     C      0.500000000000     0.819900000000     0.244400000000     0          
H283     H      0.500000000000     0.829400000000     0.278700000000     0          
O284     O      0.500000000000     0.427860000000     0.632970000000     0          
O285     O      0.000000000000     0.927860000000     0.367030000000     0          
C286     C      0.000000000000     0.857100000000     0.294000000000     0          
H287     H      0.000000000000     0.891500000000     0.285300000000     0          
C288     C      0.000000000000     0.819900000000     0.255600000000     0          
H289     H      0.000000000000     0.829400000000     0.221300000000     0          
O290     O      0.000000000000     0.427860000000     0.867030000000     0          
C291     C      0.000000000000     0.357100000000     0.794000000000     0          
H292     H      0.000000000000     0.391500000000     0.785300000000     0          
C293     C      0.000000000000     0.319900000000     0.755600000000     0          
H294     H      0.000000000000     0.329400000000     0.721300000000     0          
O295     O      0.500000000000     0.927860000000     0.867030000000     0          
O296     O      0.500000000000     0.427860000000     0.367030000000     0          
O297     O      0.000000000000     0.072140000000     0.632970000000     0          
C298     C      0.000000000000     0.142900000000     0.706000000000     0          
H299     H      0.000000000000     0.108500000000     0.714700000000     0          
C300     C      0.000000000000     0.180100000000     0.744400000000     0          
H301     H      0.000000000000     0.170600000000     0.778700000000     0          
O302     O      0.000000000000     0.572140000000     0.132970000000     0          
C303     C      0.000000000000     0.642900000000     0.206000000000     0          
H304     H      0.000000000000     0.608500000000     0.214700000000     0          
C305     C      0.000000000000     0.680100000000     0.244400000000     0          
H306     H      0.000000000000     0.670600000000     0.278700000000     0          
O307     O      0.500000000000     0.072140000000     0.132970000000     0          
C308     C      0.500000000000     0.142900000000     0.206000000000     0          
H309     H      0.500000000000     0.108500000000     0.214700000000     0          
C310     C      0.500000000000     0.180100000000     0.244400000000     0          
H311     H      0.500000000000     0.170600000000     0.278700000000     0          
O312     O      0.500000000000     0.572140000000     0.632970000000     0          
C313     C      0.500000000000     0.642900000000     0.706000000000     0          
H314     H      0.500000000000     0.608500000000     0.714700000000     0          
C315     C      0.500000000000     0.680100000000     0.744400000000     0          
H316     H      0.500000000000     0.670600000000     0.778700000000     0          
O317     O      0.367030000000     0.000000000000     0.072140000000     0          
O318     O      0.367030000000     0.500000000000     0.572140000000     0          
C319     C      0.294000000000     0.500000000000     0.642900000000     0          
H320     H      0.285300000000     0.500000000000     0.608500000000     0          
C321     C      0.255600000000     0.500000000000     0.680100000000     0          
H322     H      0.221300000000     0.500000000000     0.670600000000     0          
O323     O      0.867030000000     0.000000000000     0.572140000000     0          
O324     O      0.867030000000     0.500000000000     0.072140000000     0          
O325     O      0.632970000000     0.000000000000     0.927860000000     0          
O326     O      0.632970000000     0.500000000000     0.427860000000     0          
O327     O      0.132970000000     0.000000000000     0.427860000000     0          
O328     O      0.132970000000     0.500000000000     0.927860000000     0          
C329     C      0.206000000000     0.500000000000     0.857100000000     0          
H330     H      0.214700000000     0.500000000000     0.891500000000     0          
C331     C      0.244400000000     0.500000000000     0.819900000000     0          
H332     H      0.278700000000     0.500000000000     0.829400000000     0          
O333     O      0.367030000000     0.000000000000     0.927860000000     0          
C334     C      0.294000000000     0.000000000000     0.857100000000     0          
H335     H      0.285300000000     0.000000000000     0.891500000000     0          
C336     C      0.255600000000     0.000000000000     0.819900000000     0          
H337     H      0.221300000000     0.000000000000     0.829400000000     0          
O338     O      0.367030000000     0.500000000000     0.427860000000     0          
C339     C      0.294000000000     0.500000000000     0.357100000000     0          
H340     H      0.285300000000     0.500000000000     0.391500000000     0          
C341     C      0.255600000000     0.500000000000     0.319900000000     0          
H342     H      0.221300000000     0.500000000000     0.329400000000     0          
O343     O      0.867030000000     0.000000000000     0.427860000000     0          
C344     C      0.794000000000     0.000000000000     0.357100000000     0          
H345     H      0.785300000000     0.000000000000     0.391500000000     0          
C346     C      0.755600000000     0.000000000000     0.319900000000     0          
H347     H      0.721300000000     0.000000000000     0.329400000000     0          
O348     O      0.867030000000     0.500000000000     0.927860000000     0          
O349     O      0.632970000000     0.000000000000     0.072140000000     0          
C350     C      0.706000000000     0.000000000000     0.142900000000     0          
H351     H      0.714700000000     0.000000000000     0.108500000000     0          
C352     C      0.744400000000     0.000000000000     0.180100000000     0          
H353     H      0.778700000000     0.000000000000     0.170600000000     0          
O354     O      0.632970000000     0.500000000000     0.572140000000     0          
O355     O      0.132970000000     0.000000000000     0.572140000000     0          
C356     C      0.206000000000     0.000000000000     0.642900000000     0          
H357     H      0.214700000000     0.000000000000     0.608500000000     0          
C358     C      0.244400000000     0.000000000000     0.680100000000     0          
H359     H      0.278700000000     0.000000000000     0.670600000000     0          
O360     O      0.132970000000     0.500000000000     0.072140000000     0          
C361     C      0.206000000000     0.500000000000     0.142900000000     0          
H362     H      0.214700000000     0.500000000000     0.108500000000     0          
C363     C      0.244400000000     0.500000000000     0.180100000000     0          
H364     H      0.278700000000     0.500000000000     0.170600000000     0          
O365     O      0.367030000000     0.072140000000     0.000000000000     0          
C366     C      0.294000000000     0.142900000000     0.000000000000     0          
H367     H      0.285300000000     0.108500000000     0.000000000000     0          
C368     C      0.255600000000     0.180100000000     0.000000000000     0          
H369     H      0.221300000000     0.170600000000     0.000000000000     0          
O370     O      0.367030000000     0.572140000000     0.500000000000     0          
C371     C      0.294000000000     0.642900000000     0.500000000000     0          
H372     H      0.285300000000     0.608500000000     0.500000000000     0          
C373     C      0.255600000000     0.680100000000     0.500000000000     0          
H374     H      0.221300000000     0.670600000000     0.500000000000     0          
O375     O      0.867030000000     0.072140000000     0.500000000000     0          
C376     C      0.794000000000     0.142900000000     0.500000000000     0          
H377     H      0.785300000000     0.108500000000     0.500000000000     0          
C378     C      0.755600000000     0.180100000000     0.500000000000     0          
H379     H      0.721300000000     0.170600000000     0.500000000000     0          
O380     O      0.867030000000     0.572140000000     0.000000000000     0          
O381     O      0.632970000000     0.927860000000     0.000000000000     0          
O382     O      0.632970000000     0.427860000000     0.500000000000     0          
O383     O      0.132970000000     0.927860000000     0.500000000000     0          
C384     C      0.206000000000     0.857100000000     0.500000000000     0          
H385     H      0.214700000000     0.891500000000     0.500000000000     0          
C386     C      0.244400000000     0.819900000000     0.500000000000     0          
H387     H      0.278700000000     0.829400000000     0.500000000000     0          
O388     O      0.132970000000     0.427860000000     0.000000000000     0          
C389     C      0.206000000000     0.357100000000     0.000000000000     0          
H390     H      0.214700000000     0.391500000000     0.000000000000     0          
C391     C      0.244400000000     0.319900000000     0.000000000000     0          
H392     H      0.278700000000     0.329400000000     0.000000000000     0          
O393     O      0.367030000000     0.927860000000     0.000000000000     0          
O394     O      0.367030000000     0.427860000000     0.500000000000     0          
C395     C      0.294000000000     0.357100000000     0.500000000000     0          
H396     H      0.285300000000     0.391500000000     0.500000000000     0          
C397     C      0.255600000000     0.319900000000     0.500000000000     0          
H398     H      0.221300000000     0.329400000000     0.500000000000     0          
O399     O      0.867030000000     0.927860000000     0.500000000000     0          
O400     O      0.867030000000     0.427860000000     0.000000000000     0          
O401     O      0.632970000000     0.072140000000     0.000000000000     0          
O402     O      0.632970000000     0.572140000000     0.500000000000     0          
O403     O      0.132970000000     0.072140000000     0.500000000000     0          
C404     C      0.206000000000     0.142900000000     0.500000000000     0          
H405     H      0.214700000000     0.108500000000     0.500000000000     0          
C406     C      0.244400000000     0.180100000000     0.500000000000     0          
H407     H      0.278700000000     0.170600000000     0.500000000000     0          
O408     O      0.132970000000     0.572140000000     0.000000000000     0          
O409     O      0.072140000000     0.000000000000     0.632970000000     0          
C410     C      0.142900000000     0.000000000000     0.706000000000     0          
H411     H      0.108500000000     0.000000000000     0.714700000000     0          
C412     C      0.180100000000     0.000000000000     0.744400000000     0          
H413     H      0.170600000000     0.000000000000     0.778700000000     0          
O414     O      0.072140000000     0.500000000000     0.132970000000     0          
C415     C      0.142900000000     0.500000000000     0.206000000000     0          
H416     H      0.108500000000     0.500000000000     0.214700000000     0          
C417     C      0.180100000000     0.500000000000     0.244400000000     0          
H418     H      0.170600000000     0.500000000000     0.278700000000     0          
O419     O      0.572140000000     0.000000000000     0.132970000000     0          
C420     C      0.642900000000     0.000000000000     0.206000000000     0          
H421     H      0.608500000000     0.000000000000     0.214700000000     0          
C422     C      0.680100000000     0.000000000000     0.244400000000     0          
H423     H      0.670600000000     0.000000000000     0.278700000000     0          
O424     O      0.572140000000     0.500000000000     0.632970000000     0          
O425     O      0.927860000000     0.000000000000     0.367030000000     0          
C426     C      0.857100000000     0.000000000000     0.294000000000     0          
H427     H      0.891500000000     0.000000000000     0.285300000000     0          
C428     C      0.819900000000     0.000000000000     0.255600000000     0          
H429     H      0.829400000000     0.000000000000     0.221300000000     0          
O430     O      0.927860000000     0.500000000000     0.867030000000     0          
O431     O      0.427860000000     0.000000000000     0.867030000000     0          
C432     C      0.357100000000     0.000000000000     0.794000000000     0          
H433     H      0.391500000000     0.000000000000     0.785300000000     0          
C434     C      0.319900000000     0.000000000000     0.755600000000     0          
H435     H      0.329400000000     0.000000000000     0.721300000000     0          
O436     O      0.427860000000     0.500000000000     0.367030000000     0          
C437     C      0.357100000000     0.500000000000     0.294000000000     0          
H438     H      0.391500000000     0.500000000000     0.285300000000     0          
C439     C      0.319900000000     0.500000000000     0.255600000000     0          
H440     H      0.329400000000     0.500000000000     0.221300000000     0          
O441     O      0.927860000000     0.000000000000     0.632970000000     0          
O442     O      0.927860000000     0.500000000000     0.132970000000     0          
O443     O      0.427860000000     0.000000000000     0.132970000000     0          
O444     O      0.427860000000     0.500000000000     0.632970000000     0          
C445     C      0.357100000000     0.500000000000     0.706000000000     0          
H446     H      0.391500000000     0.500000000000     0.714700000000     0          
C447     C      0.319900000000     0.500000000000     0.744400000000     0          
H448     H      0.329400000000     0.500000000000     0.778700000000     0          
O449     O      0.072140000000     0.000000000000     0.367030000000     0          
O450     O      0.072140000000     0.500000000000     0.867030000000     0          
C451     C      0.142900000000     0.500000000000     0.794000000000     0          
H452     H      0.108500000000     0.500000000000     0.785300000000     0          
C453     C      0.180100000000     0.500000000000     0.755600000000     0          
H454     H      0.170600000000     0.500000000000     0.721300000000     0          
O455     O      0.572140000000     0.000000000000     0.867030000000     0          
O456     O      0.572140000000     0.500000000000     0.367030000000     0          
O457     O      0.000000000000     0.367030000000     0.927860000000     0          
C458     C      0.000000000000     0.294000000000     0.857100000000     0          
H459     H      0.000000000000     0.285300000000     0.891500000000     0          
C460     C      0.000000000000     0.255600000000     0.819900000000     0          
H461     H      0.000000000000     0.221300000000     0.829400000000     0          
O462     O      0.000000000000     0.867030000000     0.427860000000     0          
C463     C      0.000000000000     0.794000000000     0.357100000000     0          
H464     H      0.000000000000     0.785300000000     0.391500000000     0          
C465     C      0.000000000000     0.755600000000     0.319900000000     0          
H466     H      0.000000000000     0.721300000000     0.329400000000     0          
O467     O      0.500000000000     0.367030000000     0.427860000000     0          
O468     O      0.500000000000     0.867030000000     0.927860000000     0          
O469     O      0.000000000000     0.632970000000     0.072140000000     0          
C470     C      0.000000000000     0.706000000000     0.142900000000     0          
H471     H      0.000000000000     0.714700000000     0.108500000000     0          
C472     C      0.000000000000     0.744400000000     0.180100000000     0          
H473     H      0.000000000000     0.778700000000     0.170600000000     0          
O474     O      0.000000000000     0.132970000000     0.572140000000     0          
C475     C      0.000000000000     0.206000000000     0.642900000000     0          
H476     H      0.000000000000     0.214700000000     0.608500000000     0          
C477     C      0.000000000000     0.244400000000     0.680100000000     0          
H478     H      0.000000000000     0.278700000000     0.670600000000     0          
O479     O      0.500000000000     0.632970000000     0.572140000000     0          
C480     C      0.500000000000     0.706000000000     0.642900000000     0          
H481     H      0.500000000000     0.714700000000     0.608500000000     0          
C482     C      0.500000000000     0.744400000000     0.680100000000     0          
H483     H      0.500000000000     0.778700000000     0.670600000000     0          
O484     O      0.500000000000     0.132970000000     0.072140000000     0          
C485     C      0.500000000000     0.206000000000     0.142900000000     0          
H486     H      0.500000000000     0.214700000000     0.108500000000     0          
C487     C      0.500000000000     0.244400000000     0.180100000000     0          
H488     H      0.500000000000     0.278700000000     0.170600000000     0          
O489     O      0.000000000000     0.367030000000     0.072140000000     0          
O490     O      0.000000000000     0.867030000000     0.572140000000     0          
O491     O      0.500000000000     0.367030000000     0.572140000000     0          
O492     O      0.500000000000     0.867030000000     0.072140000000     0          
C493     C      0.500000000000     0.794000000000     0.142900000000     0          
H494     H      0.500000000000     0.785300000000     0.108500000000     0          
C495     C      0.500000000000     0.755600000000     0.180100000000     0          
H496     H      0.500000000000     0.721300000000     0.170600000000     0          
O497     O      0.000000000000     0.632970000000     0.927860000000     0          
O498     O      0.000000000000     0.132970000000     0.427860000000     0          
O499     O      0.500000000000     0.632970000000     0.427860000000     0          
C500     C      0.500000000000     0.706000000000     0.357100000000     0          
H501     H      0.500000000000     0.714700000000     0.391500000000     0          
C502     C      0.500000000000     0.744400000000     0.319900000000     0          
H503     H      0.500000000000     0.778700000000     0.329400000000     0          
O504     O      0.500000000000     0.132970000000     0.927860000000     0          
C505     C      0.117600000000     0.382400000000     0.000000000000     0          
C506     C      0.156700000000     0.343300000000     0.000000000000     0          
C507     C      0.230700000000     0.269300000000     0.000000000000     0          
C508     C      0.117600000000     0.882400000000     0.500000000000     0          
C509     C      0.156700000000     0.843300000000     0.500000000000     0          
C510     C      0.230700000000     0.769300000000     0.500000000000     0          
C511     C      0.882400000000     0.617600000000     0.000000000000     0          
C512     C      0.843300000000     0.656700000000     0.000000000000     0          
C513     C      0.769300000000     0.730700000000     0.000000000000     0          
C514     C      0.882400000000     0.117600000000     0.500000000000     0          
C515     C      0.843300000000     0.156700000000     0.500000000000     0          
C516     C      0.769300000000     0.230700000000     0.500000000000     0          
C517     C      0.382400000000     0.117600000000     0.000000000000     0          
C518     C      0.343300000000     0.156700000000     0.000000000000     0          
C519     C      0.269300000000     0.230700000000     0.000000000000     0          
C520     C      0.882400000000     0.382400000000     0.000000000000     0          
C521     C      0.843300000000     0.343300000000     0.000000000000     0          
C522     C      0.769300000000     0.269300000000     0.000000000000     0          
C523     C      0.882400000000     0.882400000000     0.500000000000     0          
C524     C      0.843300000000     0.843300000000     0.500000000000     0          
C525     C      0.769300000000     0.769300000000     0.500000000000     0          
C526     C      0.382400000000     0.382400000000     0.500000000000     0          
C527     C      0.343300000000     0.343300000000     0.500000000000     0          
C528     C      0.269300000000     0.269300000000     0.500000000000     0          
C529     C      0.117600000000     0.617600000000     0.000000000000     0          
C530     C      0.156700000000     0.656700000000     0.000000000000     0          
C531     C      0.230700000000     0.730700000000     0.000000000000     0          
C532     C      0.117600000000     0.117600000000     0.500000000000     0          
C533     C      0.156700000000     0.156700000000     0.500000000000     0          
C534     C      0.230700000000     0.230700000000     0.500000000000     0          
C535     C      0.000000000000     0.117600000000     0.382400000000     0          
C536     C      0.000000000000     0.156700000000     0.343300000000     0          
C537     C      0.000000000000     0.230700000000     0.269300000000     0          
C538     C      0.500000000000     0.117600000000     0.882400000000     0          
C539     C      0.500000000000     0.156700000000     0.843300000000     0          
C540     C      0.500000000000     0.230700000000     0.769300000000     0          
C541     C      0.000000000000     0.882400000000     0.617600000000     0          
C542     C      0.000000000000     0.843300000000     0.656700000000     0          
C543     C      0.000000000000     0.769300000000     0.730700000000     0          
C544     C      0.000000000000     0.382400000000     0.117600000000     0          
C545     C      0.000000000000     0.343300000000     0.156700000000     0          
C546     C      0.000000000000     0.269300000000     0.230700000000     0          
C547     C      0.500000000000     0.882400000000     0.117600000000     0          
C548     C      0.500000000000     0.843300000000     0.156700000000     0          
C549     C      0.500000000000     0.769300000000     0.230700000000     0          
C550     C      0.000000000000     0.882400000000     0.382400000000     0          
C551     C      0.000000000000     0.843300000000     0.343300000000     0          
C552     C      0.000000000000     0.769300000000     0.269300000000     0          
C553     C      0.500000000000     0.882400000000     0.882400000000     0          
C554     C      0.500000000000     0.843300000000     0.843300000000     0          
C555     C      0.500000000000     0.769300000000     0.769300000000     0          
C556     C      0.500000000000     0.382400000000     0.382400000000     0          
C557     C      0.500000000000     0.343300000000     0.343300000000     0          
C558     C      0.500000000000     0.269300000000     0.269300000000     0          
C559     C      0.000000000000     0.117600000000     0.617600000000     0          
C560     C      0.000000000000     0.156700000000     0.656700000000     0          
C561     C      0.000000000000     0.230700000000     0.730700000000     0          
C562     C      0.500000000000     0.117600000000     0.117600000000     0          
C563     C      0.500000000000     0.156700000000     0.156700000000     0          
C564     C      0.500000000000     0.230700000000     0.230700000000     0          
C565     C      0.382400000000     0.000000000000     0.117600000000     0          
C566     C      0.343300000000     0.000000000000     0.156700000000     0          
C567     C      0.269300000000     0.000000000000     0.230700000000     0          
C568     C      0.382400000000     0.500000000000     0.617600000000     0          
C569     C      0.343300000000     0.500000000000     0.656700000000     0          
C570     C      0.269300000000     0.500000000000     0.730700000000     0          
C571     C      0.617600000000     0.000000000000     0.882400000000     0          
C572     C      0.656700000000     0.000000000000     0.843300000000     0          
C573     C      0.730700000000     0.000000000000     0.769300000000     0          
C574     C      0.617600000000     0.500000000000     0.382400000000     0          
C575     C      0.656700000000     0.500000000000     0.343300000000     0          
C576     C      0.730700000000     0.500000000000     0.269300000000     0          
C577     C      0.117600000000     0.000000000000     0.382400000000     0          
C578     C      0.156700000000     0.000000000000     0.343300000000     0          
C579     C      0.230700000000     0.000000000000     0.269300000000     0          
C580     C      0.382400000000     0.000000000000     0.882400000000     0          
C581     C      0.343300000000     0.000000000000     0.843300000000     0          
C582     C      0.269300000000     0.000000000000     0.769300000000     0          
C583     C      0.382400000000     0.500000000000     0.382400000000     0          
C584     C      0.343300000000     0.500000000000     0.343300000000     0          
C585     C      0.269300000000     0.500000000000     0.269300000000     0          
C586     C      0.617600000000     0.000000000000     0.117600000000     0          
C587     C      0.656700000000     0.000000000000     0.156700000000     0          
C588     C      0.730700000000     0.000000000000     0.230700000000     0          
C589     C      0.617600000000     0.500000000000     0.617600000000     0          
C590     C      0.656700000000     0.500000000000     0.656700000000     0          
C591     C      0.730700000000     0.500000000000     0.730700000000     0          
C592     C      0.117600000000     0.500000000000     0.117600000000     0          
C593     C      0.156700000000     0.500000000000     0.156700000000     0          
C594     C      0.230700000000     0.500000000000     0.230700000000     0          
C595     C      0.382400000000     0.617600000000     0.500000000000     0          
C596     C      0.343300000000     0.656700000000     0.500000000000     0          
C597     C      0.269300000000     0.730700000000     0.500000000000     0          
C598     C      0.617600000000     0.882400000000     0.000000000000     0          
C599     C      0.656700000000     0.843300000000     0.000000000000     0          
C600     C      0.730700000000     0.769300000000     0.000000000000     0          
C601     C      0.617600000000     0.382400000000     0.500000000000     0          
C602     C      0.656700000000     0.343300000000     0.500000000000     0          
C603     C      0.730700000000     0.269300000000     0.500000000000     0          
C604     C      0.382400000000     0.882400000000     0.000000000000     0          
C605     C      0.343300000000     0.843300000000     0.000000000000     0          
C606     C      0.269300000000     0.769300000000     0.000000000000     0          
C607     C      0.617600000000     0.117600000000     0.000000000000     0          
C608     C      0.656700000000     0.156700000000     0.000000000000     0          
C609     C      0.730700000000     0.230700000000     0.000000000000     0          
C610     C      0.617600000000     0.617600000000     0.500000000000     0          
C611     C      0.656700000000     0.656700000000     0.500000000000     0          
C612     C      0.730700000000     0.730700000000     0.500000000000     0          
C613     C      0.117600000000     0.000000000000     0.617600000000     0          
C614     C      0.156700000000     0.000000000000     0.656700000000     0          
C615     C      0.230700000000     0.000000000000     0.730700000000     0          
C616     C      0.882400000000     0.000000000000     0.382400000000     0          
C617     C      0.843300000000     0.000000000000     0.343300000000     0          
C618     C      0.769300000000     0.000000000000     0.269300000000     0          
C619     C      0.882400000000     0.500000000000     0.882400000000     0          
C620     C      0.843300000000     0.500000000000     0.843300000000     0          
C621     C      0.769300000000     0.500000000000     0.769300000000     0          
C622     C      0.882400000000     0.000000000000     0.617600000000     0          
C623     C      0.843300000000     0.000000000000     0.656700000000     0          
C624     C      0.769300000000     0.000000000000     0.730700000000     0          
C625     C      0.882400000000     0.500000000000     0.117600000000     0          
C626     C      0.843300000000     0.500000000000     0.156700000000     0          
C627     C      0.769300000000     0.500000000000     0.230700000000     0          
C628     C      0.117600000000     0.500000000000     0.882400000000     0          
C629     C      0.156700000000     0.500000000000     0.843300000000     0          
C630     C      0.230700000000     0.500000000000     0.769300000000     0          
C631     C      0.000000000000     0.382400000000     0.882400000000     0          
C632     C      0.000000000000     0.343300000000     0.843300000000     0          
C633     C      0.000000000000     0.269300000000     0.769300000000     0          
C634     C      0.000000000000     0.617600000000     0.117600000000     0          
C635     C      0.000000000000     0.656700000000     0.156700000000     0          
C636     C      0.000000000000     0.730700000000     0.230700000000     0          
C637     C      0.500000000000     0.617600000000     0.617600000000     0          
C638     C      0.500000000000     0.656700000000     0.656700000000     0          
C639     C      0.500000000000     0.730700000000     0.730700000000     0          
C640     C      0.500000000000     0.382400000000     0.617600000000     0          
C641     C      0.500000000000     0.343300000000     0.656700000000     0          
C642     C      0.500000000000     0.269300000000     0.730700000000     0          
C643     C      0.000000000000     0.617600000000     0.882400000000     0          
C644     C      0.000000000000     0.656700000000     0.843300000000     0          
C645     C      0.000000000000     0.730700000000     0.769300000000     0          
C646     C      0.500000000000     0.617600000000     0.382400000000     0          
C647     C      0.500000000000     0.656700000000     0.343300000000     0          
C648     C      0.500000000000     0.730700000000     0.269300000000     0          
O649     O      0.045800000000     0.454200000000     0.045800000000     0          
O650     O      0.954200000000     0.545800000000     0.045800000000     0          
O651     O      0.454200000000     0.045800000000     0.045800000000     0          
O652     O      0.954200000000     0.454200000000     0.954200000000     0          
O653     O      0.454200000000     0.454200000000     0.454200000000     0          
O654     O      0.045800000000     0.545800000000     0.954200000000     0          
O655     O      0.045800000000     0.045800000000     0.454200000000     0          
O656     O      0.045800000000     0.954200000000     0.545800000000     0          
O657     O      0.954200000000     0.954200000000     0.454200000000     0          
O658     O      0.954200000000     0.045800000000     0.545800000000     0          
O659     O      0.454200000000     0.545800000000     0.545800000000     0          
O660     O      0.545800000000     0.045800000000     0.954200000000     0          
O661     O      0.545800000000     0.545800000000     0.454200000000     0          
O662     O      0.454200000000     0.954200000000     0.954200000000     0          
O663     O      0.545800000000     0.954200000000     0.045800000000     0          
O664     O      0.545800000000     0.454200000000     0.545800000000     0          
O665     O      0.454200000000     0.045800000000     0.954200000000     0          
O666     O      0.454200000000     0.545800000000     0.454200000000     0          
O667     O      0.545800000000     0.954200000000     0.954200000000     0          
O668     O      0.545800000000     0.454200000000     0.454200000000     0          
O669     O      0.045800000000     0.954200000000     0.454200000000     0          
O670     O      0.045800000000     0.454200000000     0.954200000000     0          
O671     O      0.454200000000     0.954200000000     0.045800000000     0          
O672     O      0.454200000000     0.454200000000     0.545800000000     0          
O673     O      0.545800000000     0.045800000000     0.045800000000     0          
O674     O      0.545800000000     0.545800000000     0.545800000000     0          
O675     O      0.045800000000     0.045800000000     0.545800000000     0          
O676     O      0.954200000000     0.045800000000     0.454200000000     0          
O677     O      0.954200000000     0.954200000000     0.545800000000     0          
O678     O      0.954200000000     0.454200000000     0.045800000000     0          
O679     O      0.045800000000     0.545800000000     0.045800000000     0          
O680     O      0.954200000000     0.545800000000     0.954200000000     0          


