data_WIZMAV13

_audit_creation_method RASPA-1.0
_audit_creation_date 2020-11-2
_audit_author_name 'Rocio Bueno-Perez'

_cell_length_a    26.742
_cell_length_b    26.742
_cell_length_c    26.742
_cell_angle_alpha 90
_cell_angle_beta  90
_cell_angle_gamma 90
_cell_volume      19124.1

_symmetry_cell_setting          triclinic
_symmetry_space_group_name_Hall 'P 1'
_symmetry_space_group_name_H-M  'P 1'
_symmetry_Int_Tables_number     1

_symmetry_equiv_pos_as_xyz 'x,y,z'

loop_
_atom_site_label
_atom_site_type_symbol
_atom_site_fract_x
_atom_site_fract_y
_atom_site_fract_z
_atom_site_charge
Zr1      Zr     0.407570000000     0.000000000000     0.000000000000     0          
Zr2      Zr     0.407570000000     0.500000000000     0.500000000000     0          
Zr3      Zr     0.907570000000     0.000000000000     0.500000000000     0          
Zr4      Zr     0.907570000000     0.500000000000     0.000000000000     0          
Zr5      Zr     0.592430000000     0.000000000000     0.000000000000     0          
Zr6      Zr     0.592430000000     0.500000000000     0.500000000000     0          
Zr7      Zr     0.092430000000     0.000000000000     0.500000000000     0          
Zr8      Zr     0.092430000000     0.500000000000     0.000000000000     0          
Zr9      Zr     0.000000000000     0.407570000000     0.000000000000     0          
Zr10     Zr     0.000000000000     0.907570000000     0.500000000000     0          
Zr11     Zr     0.500000000000     0.407570000000     0.500000000000     0          
Zr12     Zr     0.500000000000     0.907570000000     0.000000000000     0          
Zr13     Zr     0.000000000000     0.592430000000     0.000000000000     0          
Zr14     Zr     0.000000000000     0.092430000000     0.500000000000     0          
Zr15     Zr     0.500000000000     0.592430000000     0.500000000000     0          
Zr16     Zr     0.500000000000     0.092430000000     0.000000000000     0          
Zr17     Zr     0.000000000000     0.000000000000     0.407570000000     0          
Zr18     Zr     0.000000000000     0.500000000000     0.907570000000     0          
Zr19     Zr     0.500000000000     0.000000000000     0.907570000000     0          
Zr20     Zr     0.500000000000     0.500000000000     0.407570000000     0          
Zr21     Zr     0.000000000000     0.000000000000     0.592430000000     0          
Zr22     Zr     0.000000000000     0.500000000000     0.092430000000     0          
Zr23     Zr     0.500000000000     0.000000000000     0.092430000000     0          
Zr24     Zr     0.500000000000     0.500000000000     0.592430000000     0          
C25      C      0.382460000000     0.117540000000     0.000000000000     0          
C26      C      0.343550000000     0.156450000000     0.000000000000     0          
C27      C      0.269770000000     0.230230000000     0.000000000000     0          
C28      C      0.382460000000     0.617540000000     0.500000000000     0          
C29      C      0.343550000000     0.656450000000     0.500000000000     0          
C30      C      0.269770000000     0.730230000000     0.500000000000     0          
C31      C      0.617540000000     0.882460000000     0.000000000000     0          
C32      C      0.656450000000     0.843550000000     0.000000000000     0          
C33      C      0.730230000000     0.769770000000     0.000000000000     0          
C34      C      0.617540000000     0.382460000000     0.500000000000     0          
C35      C      0.656450000000     0.343550000000     0.500000000000     0          
C36      C      0.730230000000     0.269770000000     0.500000000000     0          
C37      C      0.117540000000     0.382460000000     0.000000000000     0          
C38      C      0.156450000000     0.343550000000     0.000000000000     0          
C39      C      0.230230000000     0.269770000000     0.000000000000     0          
C40      C      0.617540000000     0.117540000000     0.000000000000     0          
C41      C      0.656450000000     0.156450000000     0.000000000000     0          
C42      C      0.730230000000     0.230230000000     0.000000000000     0          
C43      C      0.617540000000     0.617540000000     0.500000000000     0          
C44      C      0.656450000000     0.656450000000     0.500000000000     0          
C45      C      0.730230000000     0.730230000000     0.500000000000     0          
C46      C      0.117540000000     0.117540000000     0.500000000000     0          
C47      C      0.156450000000     0.156450000000     0.500000000000     0          
C48      C      0.230230000000     0.230230000000     0.500000000000     0          
C49      C      0.382460000000     0.882460000000     0.000000000000     0          
C50      C      0.343550000000     0.843550000000     0.000000000000     0          
C51      C      0.269770000000     0.769770000000     0.000000000000     0          
C52      C      0.382460000000     0.382460000000     0.500000000000     0          
C53      C      0.343550000000     0.343550000000     0.500000000000     0          
C54      C      0.269770000000     0.269770000000     0.500000000000     0          
C55      C      0.000000000000     0.382460000000     0.117540000000     0          
C56      C      0.000000000000     0.343550000000     0.156450000000     0          
C57      C      0.000000000000     0.269770000000     0.230230000000     0          
C58      C      0.500000000000     0.382460000000     0.617540000000     0          
C59      C      0.500000000000     0.343550000000     0.656450000000     0          
C60      C      0.500000000000     0.269770000000     0.730230000000     0          
C61      C      0.000000000000     0.617540000000     0.882460000000     0          
C62      C      0.000000000000     0.656450000000     0.843550000000     0          
C63      C      0.000000000000     0.730230000000     0.769770000000     0          
C64      C      0.000000000000     0.117540000000     0.382460000000     0          
C65      C      0.000000000000     0.156450000000     0.343550000000     0          
C66      C      0.000000000000     0.230230000000     0.269770000000     0          
C67      C      0.500000000000     0.617540000000     0.382460000000     0          
C68      C      0.500000000000     0.656450000000     0.343550000000     0          
C69      C      0.500000000000     0.730230000000     0.269770000000     0          
C70      C      0.000000000000     0.617540000000     0.117540000000     0          
C71      C      0.000000000000     0.656450000000     0.156450000000     0          
C72      C      0.000000000000     0.730230000000     0.230230000000     0          
C73      C      0.500000000000     0.617540000000     0.617540000000     0          
C74      C      0.500000000000     0.656450000000     0.656450000000     0          
C75      C      0.500000000000     0.730230000000     0.730230000000     0          
C76      C      0.500000000000     0.117540000000     0.117540000000     0          
C77      C      0.500000000000     0.156450000000     0.156450000000     0          
C78      C      0.500000000000     0.230230000000     0.230230000000     0          
C79      C      0.000000000000     0.382460000000     0.882460000000     0          
C80      C      0.000000000000     0.343550000000     0.843550000000     0          
C81      C      0.000000000000     0.269770000000     0.769770000000     0          
C82      C      0.500000000000     0.382460000000     0.382460000000     0          
C83      C      0.500000000000     0.343550000000     0.343550000000     0          
C84      C      0.500000000000     0.269770000000     0.269770000000     0          
C85      C      0.117540000000     0.000000000000     0.382460000000     0          
C86      C      0.156450000000     0.000000000000     0.343550000000     0          
C87      C      0.230230000000     0.000000000000     0.269770000000     0          
C88      C      0.117540000000     0.500000000000     0.882460000000     0          
C89      C      0.156450000000     0.500000000000     0.843550000000     0          
C90      C      0.230230000000     0.500000000000     0.769770000000     0          
C91      C      0.882460000000     0.000000000000     0.617540000000     0          
C92      C      0.843550000000     0.000000000000     0.656450000000     0          
C93      C      0.769770000000     0.000000000000     0.730230000000     0          
C94      C      0.882460000000     0.500000000000     0.117540000000     0          
C95      C      0.843550000000     0.500000000000     0.156450000000     0          
C96      C      0.769770000000     0.500000000000     0.230230000000     0          
C97      C      0.382460000000     0.000000000000     0.117540000000     0          
C98      C      0.343550000000     0.000000000000     0.156450000000     0          
C99      C      0.269770000000     0.000000000000     0.230230000000     0          
C100     C      0.117540000000     0.000000000000     0.617540000000     0          
C101     C      0.156450000000     0.000000000000     0.656450000000     0          
C102     C      0.230230000000     0.000000000000     0.730230000000     0          
C103     C      0.117540000000     0.500000000000     0.117540000000     0          
C104     C      0.156450000000     0.500000000000     0.156450000000     0          
C105     C      0.230230000000     0.500000000000     0.230230000000     0          
C106     C      0.882460000000     0.000000000000     0.382460000000     0          
C107     C      0.843550000000     0.000000000000     0.343550000000     0          
C108     C      0.769770000000     0.000000000000     0.269770000000     0          
C109     C      0.882460000000     0.500000000000     0.882460000000     0          
C110     C      0.843550000000     0.500000000000     0.843550000000     0          
C111     C      0.769770000000     0.500000000000     0.769770000000     0          
C112     C      0.382460000000     0.500000000000     0.382460000000     0          
C113     C      0.343550000000     0.500000000000     0.343550000000     0          
C114     C      0.269770000000     0.500000000000     0.269770000000     0          
C115     C      0.117540000000     0.882460000000     0.500000000000     0          
C116     C      0.156450000000     0.843550000000     0.500000000000     0          
C117     C      0.230230000000     0.769770000000     0.500000000000     0          
C118     C      0.882460000000     0.617540000000     0.000000000000     0          
C119     C      0.843550000000     0.656450000000     0.000000000000     0          
C120     C      0.769770000000     0.730230000000     0.000000000000     0          
C121     C      0.882460000000     0.117540000000     0.500000000000     0          
C122     C      0.843550000000     0.156450000000     0.500000000000     0          
C123     C      0.769770000000     0.230230000000     0.500000000000     0          
C124     C      0.117540000000     0.617540000000     0.000000000000     0          
C125     C      0.156450000000     0.656450000000     0.000000000000     0          
C126     C      0.230230000000     0.730230000000     0.000000000000     0          
C127     C      0.882460000000     0.382460000000     0.000000000000     0          
C128     C      0.843550000000     0.343550000000     0.000000000000     0          
C129     C      0.769770000000     0.269770000000     0.000000000000     0          
C130     C      0.882460000000     0.882460000000     0.500000000000     0          
C131     C      0.843550000000     0.843550000000     0.500000000000     0          
C132     C      0.769770000000     0.769770000000     0.500000000000     0          
C133     C      0.382460000000     0.000000000000     0.882460000000     0          
C134     C      0.343550000000     0.000000000000     0.843550000000     0          
C135     C      0.269770000000     0.000000000000     0.769770000000     0          
C136     C      0.617540000000     0.000000000000     0.117540000000     0          
C137     C      0.656450000000     0.000000000000     0.156450000000     0          
C138     C      0.730230000000     0.000000000000     0.230230000000     0          
C139     C      0.617540000000     0.500000000000     0.617540000000     0          
C140     C      0.656450000000     0.500000000000     0.656450000000     0          
C141     C      0.730230000000     0.500000000000     0.730230000000     0          
C142     C      0.617540000000     0.000000000000     0.882460000000     0          
C143     C      0.656450000000     0.000000000000     0.843550000000     0          
C144     C      0.730230000000     0.000000000000     0.769770000000     0          
C145     C      0.617540000000     0.500000000000     0.382460000000     0          
C146     C      0.656450000000     0.500000000000     0.343550000000     0          
C147     C      0.730230000000     0.500000000000     0.269770000000     0          
C148     C      0.382460000000     0.500000000000     0.617540000000     0          
C149     C      0.343550000000     0.500000000000     0.656450000000     0          
C150     C      0.269770000000     0.500000000000     0.730230000000     0          
C151     C      0.000000000000     0.117540000000     0.617540000000     0          
C152     C      0.000000000000     0.156450000000     0.656450000000     0          
C153     C      0.000000000000     0.230230000000     0.730230000000     0          
C154     C      0.000000000000     0.882460000000     0.382460000000     0          
C155     C      0.000000000000     0.843550000000     0.343550000000     0          
C156     C      0.000000000000     0.769770000000     0.269770000000     0          
C157     C      0.500000000000     0.882460000000     0.882460000000     0          
C158     C      0.500000000000     0.843550000000     0.843550000000     0          
C159     C      0.500000000000     0.769770000000     0.769770000000     0          
C160     C      0.500000000000     0.117540000000     0.882460000000     0          
C161     C      0.500000000000     0.156450000000     0.843550000000     0          
C162     C      0.500000000000     0.230230000000     0.769770000000     0          
C163     C      0.000000000000     0.882460000000     0.617540000000     0          
C164     C      0.000000000000     0.843550000000     0.656450000000     0          
C165     C      0.000000000000     0.769770000000     0.730230000000     0          
C166     C      0.500000000000     0.882460000000     0.117540000000     0          
C167     C      0.500000000000     0.843550000000     0.156450000000     0          
C168     C      0.500000000000     0.769770000000     0.230230000000     0          
O169     O      0.367300000000     0.071930000000     0.000000000000     0          
C170     C      0.356010000000     0.205890000000     0.000000000000     0          
H171     H      0.390200000000     0.215600000000     0.000000000000     0          
C172     C      0.318660000000     0.242290000000     0.000000000000     0          
H173     H      0.328000000000     0.276600000000     0.000000000000     0          
O174     O      0.367300000000     0.571930000000     0.500000000000     0          
C175     C      0.356010000000     0.705890000000     0.500000000000     0          
H176     H      0.390200000000     0.715600000000     0.500000000000     0          
C177     C      0.318660000000     0.742290000000     0.500000000000     0          
H178     H      0.328000000000     0.776600000000     0.500000000000     0          
O179     O      0.867300000000     0.071930000000     0.500000000000     0          
C180     C      0.856010000000     0.205890000000     0.500000000000     0          
H181     H      0.890200000000     0.215600000000     0.500000000000     0          
C182     C      0.818660000000     0.242290000000     0.500000000000     0          
H183     H      0.828000000000     0.276600000000     0.500000000000     0          
O184     O      0.867300000000     0.571930000000     0.000000000000     0          
C185     C      0.856010000000     0.705890000000     0.000000000000     0          
H186     H      0.890200000000     0.715600000000     0.000000000000     0          
C187     C      0.818660000000     0.742290000000     0.000000000000     0          
H188     H      0.828000000000     0.776600000000     0.000000000000     0          
O189     O      0.632700000000     0.928070000000     0.000000000000     0          
C190     C      0.643990000000     0.794110000000     0.000000000000     0          
H191     H      0.609800000000     0.784400000000     0.000000000000     0          
C192     C      0.681340000000     0.757710000000     0.000000000000     0          
H193     H      0.672000000000     0.723400000000     0.000000000000     0          
O194     O      0.632700000000     0.428070000000     0.500000000000     0          
C195     C      0.643990000000     0.294110000000     0.500000000000     0          
H196     H      0.609800000000     0.284400000000     0.500000000000     0          
C197     C      0.681340000000     0.257710000000     0.500000000000     0          
H198     H      0.672000000000     0.223400000000     0.500000000000     0          
O199     O      0.132700000000     0.928070000000     0.500000000000     0          
C200     C      0.143990000000     0.794110000000     0.500000000000     0          
H201     H      0.109800000000     0.784400000000     0.500000000000     0          
C202     C      0.181340000000     0.757710000000     0.500000000000     0          
H203     H      0.172000000000     0.723400000000     0.500000000000     0          
O204     O      0.132700000000     0.428070000000     0.000000000000     0          
C205     C      0.143990000000     0.294110000000     0.000000000000     0          
H206     H      0.109800000000     0.284400000000     0.000000000000     0          
C207     C      0.181340000000     0.257710000000     0.000000000000     0          
H208     H      0.172000000000     0.223400000000     0.000000000000     0          
O209     O      0.632700000000     0.071930000000     0.000000000000     0          
C210     C      0.643990000000     0.205890000000     0.000000000000     0          
H211     H      0.609800000000     0.215600000000     0.000000000000     0          
C212     C      0.681340000000     0.242290000000     0.000000000000     0          
H213     H      0.672000000000     0.276600000000     0.000000000000     0          
O214     O      0.632700000000     0.571930000000     0.500000000000     0          
C215     C      0.643990000000     0.705890000000     0.500000000000     0          
H216     H      0.609800000000     0.715600000000     0.500000000000     0          
C217     C      0.681340000000     0.742290000000     0.500000000000     0          
H218     H      0.672000000000     0.776600000000     0.500000000000     0          
O219     O      0.132700000000     0.071930000000     0.500000000000     0          
C220     C      0.143990000000     0.205890000000     0.500000000000     0          
H221     H      0.109800000000     0.215600000000     0.500000000000     0          
C222     C      0.181340000000     0.242290000000     0.500000000000     0          
H223     H      0.172000000000     0.276600000000     0.500000000000     0          
O224     O      0.132700000000     0.571930000000     0.000000000000     0          
C225     C      0.143990000000     0.705890000000     0.000000000000     0          
H226     H      0.109800000000     0.715600000000     0.000000000000     0          
C227     C      0.181340000000     0.742290000000     0.000000000000     0          
H228     H      0.172000000000     0.776600000000     0.000000000000     0          
O229     O      0.367300000000     0.928070000000     0.000000000000     0          
C230     C      0.356010000000     0.794110000000     0.000000000000     0          
H231     H      0.390200000000     0.784400000000     0.000000000000     0          
C232     C      0.318660000000     0.757710000000     0.000000000000     0          
H233     H      0.328000000000     0.723400000000     0.000000000000     0          
O234     O      0.367300000000     0.428070000000     0.500000000000     0          
C235     C      0.356010000000     0.294110000000     0.500000000000     0          
H236     H      0.390200000000     0.284400000000     0.500000000000     0          
C237     C      0.318660000000     0.257710000000     0.500000000000     0          
H238     H      0.328000000000     0.223400000000     0.500000000000     0          
O239     O      0.867300000000     0.928070000000     0.500000000000     0          
C240     C      0.856010000000     0.794110000000     0.500000000000     0          
H241     H      0.890200000000     0.784400000000     0.500000000000     0          
C242     C      0.818660000000     0.757710000000     0.500000000000     0          
H243     H      0.828000000000     0.723400000000     0.500000000000     0          
O244     O      0.867300000000     0.428070000000     0.000000000000     0          
C245     C      0.856010000000     0.294110000000     0.000000000000     0          
H246     H      0.890200000000     0.284400000000     0.000000000000     0          
C247     C      0.818660000000     0.257710000000     0.000000000000     0          
H248     H      0.828000000000     0.223400000000     0.000000000000     0          
O249     O      0.000000000000     0.367300000000     0.071930000000     0          
C250     C      0.000000000000     0.356010000000     0.205890000000     0          
H251     H      0.000000000000     0.390200000000     0.215600000000     0          
C252     C      0.000000000000     0.318660000000     0.242290000000     0          
H253     H      0.000000000000     0.328000000000     0.276600000000     0          
O254     O      0.000000000000     0.867300000000     0.571930000000     0          
C255     C      0.000000000000     0.856010000000     0.705890000000     0          
H256     H      0.000000000000     0.890200000000     0.715600000000     0          
C257     C      0.000000000000     0.818660000000     0.742290000000     0          
H258     H      0.000000000000     0.828000000000     0.776600000000     0          
O259     O      0.500000000000     0.367300000000     0.571930000000     0          
C260     C      0.500000000000     0.356010000000     0.705890000000     0          
H261     H      0.500000000000     0.390200000000     0.715600000000     0          
C262     C      0.500000000000     0.318660000000     0.742290000000     0          
H263     H      0.500000000000     0.328000000000     0.776600000000     0          
O264     O      0.500000000000     0.867300000000     0.071930000000     0          
C265     C      0.500000000000     0.856010000000     0.205890000000     0          
H266     H      0.500000000000     0.890200000000     0.215600000000     0          
C267     C      0.500000000000     0.818660000000     0.242290000000     0          
H268     H      0.500000000000     0.828000000000     0.276600000000     0          
O269     O      0.000000000000     0.632700000000     0.928070000000     0          
C270     C      0.000000000000     0.643990000000     0.794110000000     0          
H271     H      0.000000000000     0.609800000000     0.784400000000     0          
C272     C      0.000000000000     0.681340000000     0.757710000000     0          
H273     H      0.000000000000     0.672000000000     0.723400000000     0          
O274     O      0.000000000000     0.132700000000     0.428070000000     0          
C275     C      0.000000000000     0.143990000000     0.294110000000     0          
H276     H      0.000000000000     0.109800000000     0.284400000000     0          
C277     C      0.000000000000     0.181340000000     0.257710000000     0          
H278     H      0.000000000000     0.172000000000     0.223400000000     0          
O279     O      0.500000000000     0.632700000000     0.428070000000     0          
C280     C      0.500000000000     0.643990000000     0.294110000000     0          
H281     H      0.500000000000     0.609800000000     0.284400000000     0          
C282     C      0.500000000000     0.681340000000     0.257710000000     0          
H283     H      0.500000000000     0.672000000000     0.223400000000     0          
O284     O      0.500000000000     0.132700000000     0.928070000000     0          
C285     C      0.500000000000     0.143990000000     0.794110000000     0          
H286     H      0.500000000000     0.109800000000     0.784400000000     0          
C287     C      0.500000000000     0.181340000000     0.757710000000     0          
H288     H      0.500000000000     0.172000000000     0.723400000000     0          
O289     O      0.000000000000     0.632700000000     0.071930000000     0          
C290     C      0.000000000000     0.643990000000     0.205890000000     0          
H291     H      0.000000000000     0.609800000000     0.215600000000     0          
C292     C      0.000000000000     0.681340000000     0.242290000000     0          
H293     H      0.000000000000     0.672000000000     0.276600000000     0          
O294     O      0.000000000000     0.132700000000     0.571930000000     0          
C295     C      0.000000000000     0.143990000000     0.705890000000     0          
H296     H      0.000000000000     0.109800000000     0.715600000000     0          
C297     C      0.000000000000     0.181340000000     0.742290000000     0          
H298     H      0.000000000000     0.172000000000     0.776600000000     0          
O299     O      0.500000000000     0.632700000000     0.571930000000     0          
C300     C      0.500000000000     0.643990000000     0.705890000000     0          
H301     H      0.500000000000     0.609800000000     0.715600000000     0          
C302     C      0.500000000000     0.681340000000     0.742290000000     0          
H303     H      0.500000000000     0.672000000000     0.776600000000     0          
O304     O      0.500000000000     0.132700000000     0.071930000000     0          
C305     C      0.500000000000     0.143990000000     0.205890000000     0          
H306     H      0.500000000000     0.109800000000     0.215600000000     0          
C307     C      0.500000000000     0.181340000000     0.242290000000     0          
H308     H      0.500000000000     0.172000000000     0.276600000000     0          
O309     O      0.000000000000     0.367300000000     0.928070000000     0          
C310     C      0.000000000000     0.356010000000     0.794110000000     0          
H311     H      0.000000000000     0.390200000000     0.784400000000     0          
C312     C      0.000000000000     0.318660000000     0.757710000000     0          
H313     H      0.000000000000     0.328000000000     0.723400000000     0          
O314     O      0.000000000000     0.867300000000     0.428070000000     0          
C315     C      0.000000000000     0.856010000000     0.294110000000     0          
H316     H      0.000000000000     0.890200000000     0.284400000000     0          
C317     C      0.000000000000     0.818660000000     0.257710000000     0          
H318     H      0.000000000000     0.828000000000     0.223400000000     0          
O319     O      0.500000000000     0.367300000000     0.428070000000     0          
C320     C      0.500000000000     0.356010000000     0.294110000000     0          
H321     H      0.500000000000     0.390200000000     0.284400000000     0          
C322     C      0.500000000000     0.318660000000     0.257710000000     0          
H323     H      0.500000000000     0.328000000000     0.223400000000     0          
O324     O      0.500000000000     0.867300000000     0.928070000000     0          
C325     C      0.500000000000     0.856010000000     0.794110000000     0          
H326     H      0.500000000000     0.890200000000     0.784400000000     0          
C327     C      0.500000000000     0.818660000000     0.757710000000     0          
H328     H      0.500000000000     0.828000000000     0.723400000000     0          
O329     O      0.071930000000     0.000000000000     0.367300000000     0          
C330     C      0.205890000000     0.000000000000     0.356010000000     0          
H331     H      0.215600000000     0.000000000000     0.390200000000     0          
C332     C      0.242290000000     0.000000000000     0.318660000000     0          
H333     H      0.276600000000     0.000000000000     0.328000000000     0          
O334     O      0.071930000000     0.500000000000     0.867300000000     0          
C335     C      0.205890000000     0.500000000000     0.856010000000     0          
H336     H      0.215600000000     0.500000000000     0.890200000000     0          
C337     C      0.242290000000     0.500000000000     0.818660000000     0          
H338     H      0.276600000000     0.500000000000     0.828000000000     0          
O339     O      0.571930000000     0.000000000000     0.867300000000     0          
C340     C      0.705890000000     0.000000000000     0.856010000000     0          
H341     H      0.715600000000     0.000000000000     0.890200000000     0          
C342     C      0.742290000000     0.000000000000     0.818660000000     0          
H343     H      0.776600000000     0.000000000000     0.828000000000     0          
O344     O      0.571930000000     0.500000000000     0.367300000000     0          
C345     C      0.705890000000     0.500000000000     0.356010000000     0          
H346     H      0.715600000000     0.500000000000     0.390200000000     0          
C347     C      0.742290000000     0.500000000000     0.318660000000     0          
H348     H      0.776600000000     0.500000000000     0.328000000000     0          
O349     O      0.928070000000     0.000000000000     0.632700000000     0          
C350     C      0.794110000000     0.000000000000     0.643990000000     0          
H351     H      0.784400000000     0.000000000000     0.609800000000     0          
C352     C      0.757710000000     0.000000000000     0.681340000000     0          
H353     H      0.723400000000     0.000000000000     0.672000000000     0          
O354     O      0.928070000000     0.500000000000     0.132700000000     0          
C355     C      0.794110000000     0.500000000000     0.143990000000     0          
H356     H      0.784400000000     0.500000000000     0.109800000000     0          
C357     C      0.757710000000     0.500000000000     0.181340000000     0          
H358     H      0.723400000000     0.500000000000     0.172000000000     0          
O359     O      0.428070000000     0.000000000000     0.132700000000     0          
C360     C      0.294110000000     0.000000000000     0.143990000000     0          
H361     H      0.284400000000     0.000000000000     0.109800000000     0          
C362     C      0.257710000000     0.000000000000     0.181340000000     0          
H363     H      0.223400000000     0.000000000000     0.172000000000     0          
O364     O      0.428070000000     0.500000000000     0.632700000000     0          
C365     C      0.294110000000     0.500000000000     0.643990000000     0          
H366     H      0.284400000000     0.500000000000     0.609800000000     0          
C367     C      0.257710000000     0.500000000000     0.681340000000     0          
H368     H      0.223400000000     0.500000000000     0.672000000000     0          
O369     O      0.071930000000     0.000000000000     0.632700000000     0          
C370     C      0.205890000000     0.000000000000     0.643990000000     0          
H371     H      0.215600000000     0.000000000000     0.609800000000     0          
C372     C      0.242290000000     0.000000000000     0.681340000000     0          
H373     H      0.276600000000     0.000000000000     0.672000000000     0          
O374     O      0.071930000000     0.500000000000     0.132700000000     0          
C375     C      0.205890000000     0.500000000000     0.143990000000     0          
H376     H      0.215600000000     0.500000000000     0.109800000000     0          
C377     C      0.242290000000     0.500000000000     0.181340000000     0          
H378     H      0.276600000000     0.500000000000     0.172000000000     0          
O379     O      0.571930000000     0.000000000000     0.132700000000     0          
C380     C      0.705890000000     0.000000000000     0.143990000000     0          
H381     H      0.715600000000     0.000000000000     0.109800000000     0          
C382     C      0.742290000000     0.000000000000     0.181340000000     0          
H383     H      0.776600000000     0.000000000000     0.172000000000     0          
O384     O      0.571930000000     0.500000000000     0.632700000000     0          
C385     C      0.705890000000     0.500000000000     0.643990000000     0          
H386     H      0.715600000000     0.500000000000     0.609800000000     0          
C387     C      0.742290000000     0.500000000000     0.681340000000     0          
H388     H      0.776600000000     0.500000000000     0.672000000000     0          
O389     O      0.928070000000     0.000000000000     0.367300000000     0          
C390     C      0.794110000000     0.000000000000     0.356010000000     0          
H391     H      0.784400000000     0.000000000000     0.390200000000     0          
C392     C      0.757710000000     0.000000000000     0.318660000000     0          
H393     H      0.723400000000     0.000000000000     0.328000000000     0          
O394     O      0.928070000000     0.500000000000     0.867300000000     0          
C395     C      0.794110000000     0.500000000000     0.856010000000     0          
H396     H      0.784400000000     0.500000000000     0.890200000000     0          
C397     C      0.757710000000     0.500000000000     0.818660000000     0          
H398     H      0.723400000000     0.500000000000     0.828000000000     0          
O399     O      0.428070000000     0.000000000000     0.867300000000     0          
C400     C      0.294110000000     0.000000000000     0.856010000000     0          
H401     H      0.284400000000     0.000000000000     0.890200000000     0          
C402     C      0.257710000000     0.000000000000     0.818660000000     0          
H403     H      0.223400000000     0.000000000000     0.828000000000     0          
O404     O      0.428070000000     0.500000000000     0.367300000000     0          
C405     C      0.294110000000     0.500000000000     0.356010000000     0          
H406     H      0.284400000000     0.500000000000     0.390200000000     0          
C407     C      0.257710000000     0.500000000000     0.318660000000     0          
H408     H      0.223400000000     0.500000000000     0.328000000000     0          
O409     O      0.071930000000     0.367300000000     0.000000000000     0          
C410     C      0.205890000000     0.356010000000     0.000000000000     0          
H411     H      0.215600000000     0.390200000000     0.000000000000     0          
C412     C      0.242290000000     0.318660000000     0.000000000000     0          
H413     H      0.276600000000     0.328000000000     0.000000000000     0          
O414     O      0.071930000000     0.867300000000     0.500000000000     0          
C415     C      0.205890000000     0.856010000000     0.500000000000     0          
H416     H      0.215600000000     0.890200000000     0.500000000000     0          
C417     C      0.242290000000     0.818660000000     0.500000000000     0          
H418     H      0.276600000000     0.828000000000     0.500000000000     0          
O419     O      0.571930000000     0.367300000000     0.500000000000     0          
C420     C      0.705890000000     0.356010000000     0.500000000000     0          
H421     H      0.715600000000     0.390200000000     0.500000000000     0          
C422     C      0.742290000000     0.318660000000     0.500000000000     0          
H423     H      0.776600000000     0.328000000000     0.500000000000     0          
O424     O      0.571930000000     0.867300000000     0.000000000000     0          
C425     C      0.705890000000     0.856010000000     0.000000000000     0          
H426     H      0.715600000000     0.890200000000     0.000000000000     0          
C427     C      0.742290000000     0.818660000000     0.000000000000     0          
H428     H      0.776600000000     0.828000000000     0.000000000000     0          
O429     O      0.928070000000     0.632700000000     0.000000000000     0          
C430     C      0.794110000000     0.643990000000     0.000000000000     0          
H431     H      0.784400000000     0.609800000000     0.000000000000     0          
C432     C      0.757710000000     0.681340000000     0.000000000000     0          
H433     H      0.723400000000     0.672000000000     0.000000000000     0          
O434     O      0.928070000000     0.132700000000     0.500000000000     0          
C435     C      0.794110000000     0.143990000000     0.500000000000     0          
H436     H      0.784400000000     0.109800000000     0.500000000000     0          
C437     C      0.757710000000     0.181340000000     0.500000000000     0          
H438     H      0.723400000000     0.172000000000     0.500000000000     0          
O439     O      0.428070000000     0.632700000000     0.500000000000     0          
C440     C      0.294110000000     0.643990000000     0.500000000000     0          
H441     H      0.284400000000     0.609800000000     0.500000000000     0          
C442     C      0.257710000000     0.681340000000     0.500000000000     0          
H443     H      0.223400000000     0.672000000000     0.500000000000     0          
O444     O      0.428070000000     0.132700000000     0.000000000000     0          
C445     C      0.294110000000     0.143990000000     0.000000000000     0          
H446     H      0.284400000000     0.109800000000     0.000000000000     0          
C447     C      0.257710000000     0.181340000000     0.000000000000     0          
H448     H      0.223400000000     0.172000000000     0.000000000000     0          
O449     O      0.071930000000     0.632700000000     0.000000000000     0          
C450     C      0.205890000000     0.643990000000     0.000000000000     0          
H451     H      0.215600000000     0.609800000000     0.000000000000     0          
C452     C      0.242290000000     0.681340000000     0.000000000000     0          
H453     H      0.276600000000     0.672000000000     0.000000000000     0          
O454     O      0.071930000000     0.132700000000     0.500000000000     0          
C455     C      0.205890000000     0.143990000000     0.500000000000     0          
H456     H      0.215600000000     0.109800000000     0.500000000000     0          
C457     C      0.242290000000     0.181340000000     0.500000000000     0          
H458     H      0.276600000000     0.172000000000     0.500000000000     0          
O459     O      0.571930000000     0.632700000000     0.500000000000     0          
C460     C      0.705890000000     0.643990000000     0.500000000000     0          
H461     H      0.715600000000     0.609800000000     0.500000000000     0          
C462     C      0.742290000000     0.681340000000     0.500000000000     0          
H463     H      0.776600000000     0.672000000000     0.500000000000     0          
O464     O      0.571930000000     0.132700000000     0.000000000000     0          
C465     C      0.705890000000     0.143990000000     0.000000000000     0          
H466     H      0.715600000000     0.109800000000     0.000000000000     0          
C467     C      0.742290000000     0.181340000000     0.000000000000     0          
H468     H      0.776600000000     0.172000000000     0.000000000000     0          
O469     O      0.928070000000     0.367300000000     0.000000000000     0          
C470     C      0.794110000000     0.356010000000     0.000000000000     0          
H471     H      0.784400000000     0.390200000000     0.000000000000     0          
C472     C      0.757710000000     0.318660000000     0.000000000000     0          
H473     H      0.723400000000     0.328000000000     0.000000000000     0          
O474     O      0.928070000000     0.867300000000     0.500000000000     0          
C475     C      0.794110000000     0.856010000000     0.500000000000     0          
H476     H      0.784400000000     0.890200000000     0.500000000000     0          
C477     C      0.757710000000     0.818660000000     0.500000000000     0          
H478     H      0.723400000000     0.828000000000     0.500000000000     0          
O479     O      0.428070000000     0.367300000000     0.500000000000     0          
C480     C      0.294110000000     0.356010000000     0.500000000000     0          
H481     H      0.284400000000     0.390200000000     0.500000000000     0          
C482     C      0.257710000000     0.318660000000     0.500000000000     0          
H483     H      0.223400000000     0.328000000000     0.500000000000     0          
O484     O      0.428070000000     0.867300000000     0.000000000000     0          
C485     C      0.294110000000     0.856010000000     0.000000000000     0          
H486     H      0.284400000000     0.890200000000     0.000000000000     0          
C487     C      0.257710000000     0.818660000000     0.000000000000     0          
H488     H      0.223400000000     0.828000000000     0.000000000000     0          
O489     O      0.367300000000     0.000000000000     0.928070000000     0          
C490     C      0.356010000000     0.000000000000     0.794110000000     0          
H491     H      0.390200000000     0.000000000000     0.784400000000     0          
C492     C      0.318660000000     0.000000000000     0.757710000000     0          
H493     H      0.328000000000     0.000000000000     0.723400000000     0          
O494     O      0.367300000000     0.500000000000     0.428070000000     0          
C495     C      0.356010000000     0.500000000000     0.294110000000     0          
H496     H      0.390200000000     0.500000000000     0.284400000000     0          
C497     C      0.318660000000     0.500000000000     0.257710000000     0          
H498     H      0.328000000000     0.500000000000     0.223400000000     0          
O499     O      0.867300000000     0.000000000000     0.428070000000     0          
C500     C      0.856010000000     0.000000000000     0.294110000000     0          
H501     H      0.890200000000     0.000000000000     0.284400000000     0          
C502     C      0.818660000000     0.000000000000     0.257710000000     0          
H503     H      0.828000000000     0.000000000000     0.223400000000     0          
O504     O      0.867300000000     0.500000000000     0.928070000000     0          
C505     C      0.856010000000     0.500000000000     0.794110000000     0          
H506     H      0.890200000000     0.500000000000     0.784400000000     0          
C507     C      0.818660000000     0.500000000000     0.757710000000     0          
H508     H      0.828000000000     0.500000000000     0.723400000000     0          
O509     O      0.632700000000     0.000000000000     0.071930000000     0          
C510     C      0.643990000000     0.000000000000     0.205890000000     0          
H511     H      0.609800000000     0.000000000000     0.215600000000     0          
C512     C      0.681340000000     0.000000000000     0.242290000000     0          
H513     H      0.672000000000     0.000000000000     0.276600000000     0          
O514     O      0.632700000000     0.500000000000     0.571930000000     0          
C515     C      0.643990000000     0.500000000000     0.705890000000     0          
H516     H      0.609800000000     0.500000000000     0.715600000000     0          
C517     C      0.681340000000     0.500000000000     0.742290000000     0          
H518     H      0.672000000000     0.500000000000     0.776600000000     0          
O519     O      0.132700000000     0.000000000000     0.571930000000     0          
C520     C      0.143990000000     0.000000000000     0.705890000000     0          
H521     H      0.109800000000     0.000000000000     0.715600000000     0          
C522     C      0.181340000000     0.000000000000     0.742290000000     0          
H523     H      0.172000000000     0.000000000000     0.776600000000     0          
O524     O      0.132700000000     0.500000000000     0.071930000000     0          
C525     C      0.143990000000     0.500000000000     0.205890000000     0          
H526     H      0.109800000000     0.500000000000     0.215600000000     0          
C527     C      0.181340000000     0.500000000000     0.242290000000     0          
H528     H      0.172000000000     0.500000000000     0.276600000000     0          
O529     O      0.632700000000     0.000000000000     0.928070000000     0          
C530     C      0.643990000000     0.000000000000     0.794110000000     0          
H531     H      0.609800000000     0.000000000000     0.784400000000     0          
C532     C      0.681340000000     0.000000000000     0.757710000000     0          
H533     H      0.672000000000     0.000000000000     0.723400000000     0          
O534     O      0.632700000000     0.500000000000     0.428070000000     0          
C535     C      0.643990000000     0.500000000000     0.294110000000     0          
H536     H      0.609800000000     0.500000000000     0.284400000000     0          
C537     C      0.681340000000     0.500000000000     0.257710000000     0          
H538     H      0.672000000000     0.500000000000     0.223400000000     0          
O539     O      0.132700000000     0.000000000000     0.428070000000     0          
C540     C      0.143990000000     0.000000000000     0.294110000000     0          
H541     H      0.109800000000     0.000000000000     0.284400000000     0          
C542     C      0.181340000000     0.000000000000     0.257710000000     0          
H543     H      0.172000000000     0.000000000000     0.223400000000     0          
O544     O      0.132700000000     0.500000000000     0.928070000000     0          
C545     C      0.143990000000     0.500000000000     0.794110000000     0          
H546     H      0.109800000000     0.500000000000     0.784400000000     0          
C547     C      0.181340000000     0.500000000000     0.757710000000     0          
H548     H      0.172000000000     0.500000000000     0.723400000000     0          
O549     O      0.367300000000     0.000000000000     0.071930000000     0          
C550     C      0.356010000000     0.000000000000     0.205890000000     0          
H551     H      0.390200000000     0.000000000000     0.215600000000     0          
C552     C      0.318660000000     0.000000000000     0.242290000000     0          
H553     H      0.328000000000     0.000000000000     0.276600000000     0          
O554     O      0.367300000000     0.500000000000     0.571930000000     0          
C555     C      0.356010000000     0.500000000000     0.705890000000     0          
H556     H      0.390200000000     0.500000000000     0.715600000000     0          
C557     C      0.318660000000     0.500000000000     0.742290000000     0          
H558     H      0.328000000000     0.500000000000     0.776600000000     0          
O559     O      0.867300000000     0.000000000000     0.571930000000     0          
C560     C      0.856010000000     0.000000000000     0.705890000000     0          
H561     H      0.890200000000     0.000000000000     0.715600000000     0          
C562     C      0.818660000000     0.000000000000     0.742290000000     0          
H563     H      0.828000000000     0.000000000000     0.776600000000     0          
O564     O      0.867300000000     0.500000000000     0.071930000000     0          
C565     C      0.856010000000     0.500000000000     0.205890000000     0          
H566     H      0.890200000000     0.500000000000     0.215600000000     0          
C567     C      0.818660000000     0.500000000000     0.242290000000     0          
H568     H      0.828000000000     0.500000000000     0.276600000000     0          
O569     O      0.000000000000     0.071930000000     0.632700000000     0          
C570     C      0.000000000000     0.205890000000     0.643990000000     0          
H571     H      0.000000000000     0.215600000000     0.609800000000     0          
C572     C      0.000000000000     0.242290000000     0.681340000000     0          
H573     H      0.000000000000     0.276600000000     0.672000000000     0          
O574     O      0.000000000000     0.571930000000     0.132700000000     0          
C575     C      0.000000000000     0.705890000000     0.143990000000     0          
H576     H      0.000000000000     0.715600000000     0.109800000000     0          
C577     C      0.000000000000     0.742290000000     0.181340000000     0          
H578     H      0.000000000000     0.776600000000     0.172000000000     0          
O579     O      0.500000000000     0.071930000000     0.132700000000     0          
C580     C      0.500000000000     0.205890000000     0.143990000000     0          
H581     H      0.500000000000     0.215600000000     0.109800000000     0          
C582     C      0.500000000000     0.242290000000     0.181340000000     0          
H583     H      0.500000000000     0.276600000000     0.172000000000     0          
O584     O      0.500000000000     0.571930000000     0.632700000000     0          
C585     C      0.500000000000     0.705890000000     0.643990000000     0          
H586     H      0.500000000000     0.715600000000     0.609800000000     0          
C587     C      0.500000000000     0.742290000000     0.681340000000     0          
H588     H      0.500000000000     0.776600000000     0.672000000000     0          
O589     O      0.000000000000     0.928070000000     0.367300000000     0          
C590     C      0.000000000000     0.794110000000     0.356010000000     0          
H591     H      0.000000000000     0.784400000000     0.390200000000     0          
C592     C      0.000000000000     0.757710000000     0.318660000000     0          
H593     H      0.000000000000     0.723400000000     0.328000000000     0          
O594     O      0.000000000000     0.428070000000     0.867300000000     0          
C595     C      0.000000000000     0.294110000000     0.856010000000     0          
H596     H      0.000000000000     0.284400000000     0.890200000000     0          
C597     C      0.000000000000     0.257710000000     0.818660000000     0          
H598     H      0.000000000000     0.223400000000     0.828000000000     0          
O599     O      0.500000000000     0.928070000000     0.867300000000     0          
C600     C      0.500000000000     0.794110000000     0.856010000000     0          
H601     H      0.500000000000     0.784400000000     0.890200000000     0          
C602     C      0.500000000000     0.757710000000     0.818660000000     0          
H603     H      0.500000000000     0.723400000000     0.828000000000     0          
O604     O      0.500000000000     0.428070000000     0.367300000000     0          
C605     C      0.500000000000     0.294110000000     0.356010000000     0          
H606     H      0.500000000000     0.284400000000     0.390200000000     0          
C607     C      0.500000000000     0.257710000000     0.318660000000     0          
H608     H      0.500000000000     0.223400000000     0.328000000000     0          
O609     O      0.000000000000     0.071930000000     0.367300000000     0          
C610     C      0.000000000000     0.205890000000     0.356010000000     0          
H611     H      0.000000000000     0.215600000000     0.390200000000     0          
C612     C      0.000000000000     0.242290000000     0.318660000000     0          
H613     H      0.000000000000     0.276600000000     0.328000000000     0          
O614     O      0.000000000000     0.571930000000     0.867300000000     0          
C615     C      0.000000000000     0.705890000000     0.856010000000     0          
H616     H      0.000000000000     0.715600000000     0.890200000000     0          
C617     C      0.000000000000     0.742290000000     0.818660000000     0          
H618     H      0.000000000000     0.776600000000     0.828000000000     0          
O619     O      0.500000000000     0.071930000000     0.867300000000     0          
C620     C      0.500000000000     0.205890000000     0.856010000000     0          
H621     H      0.500000000000     0.215600000000     0.890200000000     0          
C622     C      0.500000000000     0.242290000000     0.818660000000     0          
H623     H      0.500000000000     0.276600000000     0.828000000000     0          
O624     O      0.500000000000     0.571930000000     0.367300000000     0          
C625     C      0.500000000000     0.705890000000     0.356010000000     0          
H626     H      0.500000000000     0.715600000000     0.390200000000     0          
C627     C      0.500000000000     0.742290000000     0.318660000000     0          
H628     H      0.500000000000     0.776600000000     0.328000000000     0          
O629     O      0.000000000000     0.928070000000     0.632700000000     0          
C630     C      0.000000000000     0.794110000000     0.643990000000     0          
H631     H      0.000000000000     0.784400000000     0.609800000000     0          
C632     C      0.000000000000     0.757710000000     0.681340000000     0          
H633     H      0.000000000000     0.723400000000     0.672000000000     0          
O634     O      0.000000000000     0.428070000000     0.132700000000     0          
C635     C      0.000000000000     0.294110000000     0.143990000000     0          
H636     H      0.000000000000     0.284400000000     0.109800000000     0          
C637     C      0.000000000000     0.257710000000     0.181340000000     0          
H638     H      0.000000000000     0.223400000000     0.172000000000     0          
O639     O      0.500000000000     0.928070000000     0.132700000000     0          
C640     C      0.500000000000     0.794110000000     0.143990000000     0          
H641     H      0.500000000000     0.784400000000     0.109800000000     0          
C642     C      0.500000000000     0.757710000000     0.181340000000     0          
H643     H      0.500000000000     0.723400000000     0.172000000000     0          
O644     O      0.500000000000     0.428070000000     0.632700000000     0          
C645     C      0.500000000000     0.294110000000     0.643990000000     0          
H646     H      0.500000000000     0.284400000000     0.609800000000     0          
C647     C      0.500000000000     0.257710000000     0.681340000000     0          
H648     H      0.500000000000     0.223400000000     0.672000000000     0          
O649     O      0.454110000000     0.045890000000     0.954110000000     0          
O650     O      0.454110000000     0.545890000000     0.454110000000     0          
O651     O      0.545890000000     0.954110000000     0.954110000000     0          
O652     O      0.545890000000     0.454110000000     0.454110000000     0          
O653     O      0.045890000000     0.954110000000     0.454110000000     0          
O654     O      0.045890000000     0.454110000000     0.954110000000     0          
O655     O      0.545890000000     0.045890000000     0.045890000000     0          
O656     O      0.545890000000     0.545890000000     0.545890000000     0          
O657     O      0.454110000000     0.954110000000     0.045890000000     0          
O658     O      0.454110000000     0.454110000000     0.545890000000     0          
O659     O      0.954110000000     0.454110000000     0.045890000000     0          
O660     O      0.954110000000     0.545890000000     0.954110000000     0          
O661     O      0.954110000000     0.045890000000     0.454110000000     0          
O662     O      0.045890000000     0.545890000000     0.045890000000     0          
O663     O      0.954110000000     0.954110000000     0.545890000000     0          
O664     O      0.045890000000     0.045890000000     0.545890000000     0          
O665     O      0.045890000000     0.454110000000     0.045890000000     0          
O666     O      0.954110000000     0.545890000000     0.045890000000     0          
O667     O      0.454110000000     0.045890000000     0.045890000000     0          
O668     O      0.045890000000     0.545890000000     0.954110000000     0          
O669     O      0.045890000000     0.045890000000     0.454110000000     0          
O670     O      0.954110000000     0.454110000000     0.954110000000     0          
O671     O      0.454110000000     0.454110000000     0.454110000000     0          
O672     O      0.454110000000     0.954110000000     0.954110000000     0          
O673     O      0.545890000000     0.954110000000     0.045890000000     0          
O674     O      0.545890000000     0.454110000000     0.545890000000     0          
O675     O      0.545890000000     0.045890000000     0.954110000000     0          
O676     O      0.545890000000     0.545890000000     0.454110000000     0          
O677     O      0.454110000000     0.545890000000     0.545890000000     0          
O678     O      0.954110000000     0.045890000000     0.545890000000     0          
O679     O      0.954110000000     0.954110000000     0.454110000000     0          
O680     O      0.045890000000     0.954110000000     0.545890000000     0          


