data_WIZMAV05

_audit_creation_method RASPA-1.0
_audit_creation_date 2020-11-2
_audit_author_name 'Rocio Bueno-Perez'

_cell_length_a    26.9185
_cell_length_b    26.9185
_cell_length_c    26.9185
_cell_angle_alpha 90
_cell_angle_beta  90
_cell_angle_gamma 90
_cell_volume      19505.3

_symmetry_cell_setting          cubic
_symmetry_space_group_name_Hall 'P 1'
_symmetry_space_group_name_H-M  'P 1'
_symmetry_Int_Tables_number     1

_symmetry_equiv_pos_as_xyz 'x,y,z'

loop_
_atom_site_label
_atom_site_type_symbol
_atom_site_fract_x
_atom_site_fract_y
_atom_site_fract_z
_atom_site_charge
Zr1      Zr     0.500000000000     0.592120000000     0.500000000000     0          
C1       C      0.617600000000     0.617600000000     0.500000000000     0          
C2       C      0.656300000000     0.656300000000     0.500000000000     0          
C5       C      0.730360000000     0.730360000000     0.500000000000     0          
O1       O      0.572900000000     0.632500000000     0.500000000000     0          
C3       C      0.644600000000     0.704900000000     0.500000000000     0          
C4       C      0.680900000000     0.741600000000     0.500000000000     0          
H1       H      0.610600000000     0.714400000000     0.500000000000     0          
H2       H      0.671000000000     0.775500000000     0.500000000000     0          
O2       O      0.455500000000     0.544500000000     0.544500000000     0          
Zr1      Zr     0.407880000000     0.500000000000     0.500000000000     0          
C1       C      0.382400000000     0.617600000000     0.500000000000     0          
C2       C      0.343700000000     0.656300000000     0.500000000000     0          
C5       C      0.269640000000     0.730360000000     0.500000000000     0          
O1       O      0.367500000000     0.572900000000     0.500000000000     0          
C3       C      0.295100000000     0.644600000000     0.500000000000     0          
C4       C      0.258400000000     0.680900000000     0.500000000000     0          
H1       H      0.285600000000     0.610600000000     0.500000000000     0          
H2       H      0.224500000000     0.671000000000     0.500000000000     0          
O2       O      0.455500000000     0.455500000000     0.544500000000     0          
Zr1      Zr     0.500000000000     0.407880000000     0.500000000000     0          
C1       C      0.382400000000     0.382400000000     0.500000000000     0          
C2       C      0.343700000000     0.343700000000     0.500000000000     0          
C5       C      0.269640000000     0.269640000000     0.500000000000     0          
O1       O      0.427100000000     0.367500000000     0.500000000000     0          
C3       C      0.355400000000     0.295100000000     0.500000000000     0          
C4       C      0.319100000000     0.258400000000     0.500000000000     0          
H1       H      0.389400000000     0.285600000000     0.500000000000     0          
H2       H      0.329000000000     0.224500000000     0.500000000000     0          
O2       O      0.544500000000     0.455500000000     0.544500000000     0          
Zr1      Zr     0.592120000000     0.500000000000     0.500000000000     0          
C1       C      0.617600000000     0.382400000000     0.500000000000     0          
C2       C      0.656300000000     0.343700000000     0.500000000000     0          
C5       C      0.730360000000     0.269640000000     0.500000000000     0          
O1       O      0.632500000000     0.427100000000     0.500000000000     0          
C3       C      0.704900000000     0.355400000000     0.500000000000     0          
C4       C      0.741600000000     0.319100000000     0.500000000000     0          
H1       H      0.714400000000     0.389400000000     0.500000000000     0          
H2       H      0.775500000000     0.329000000000     0.500000000000     0          
O2       O      0.544500000000     0.544500000000     0.544500000000     0          
O1       O      0.572900000000     0.367500000000     0.500000000000     0          
C3       C      0.644600000000     0.295100000000     0.500000000000     0          
C4       C      0.680900000000     0.258400000000     0.500000000000     0          
H1       H      0.610600000000     0.285600000000     0.500000000000     0          
H2       H      0.671000000000     0.224500000000     0.500000000000     0          
O2       O      0.455500000000     0.455500000000     0.455500000000     0          
O1       O      0.632500000000     0.572900000000     0.500000000000     0          
C3       C      0.704900000000     0.644600000000     0.500000000000     0          
C4       C      0.741600000000     0.680900000000     0.500000000000     0          
H1       H      0.714400000000     0.610600000000     0.500000000000     0          
H2       H      0.775500000000     0.671000000000     0.500000000000     0          
O2       O      0.544500000000     0.455500000000     0.455500000000     0          
O1       O      0.427100000000     0.632500000000     0.500000000000     0          
C3       C      0.355400000000     0.704900000000     0.500000000000     0          
C4       C      0.319100000000     0.741600000000     0.500000000000     0          
H1       H      0.389400000000     0.714400000000     0.500000000000     0          
H2       H      0.329000000000     0.775500000000     0.500000000000     0          
O2       O      0.544500000000     0.544500000000     0.455500000000     0          
O1       O      0.367500000000     0.427100000000     0.500000000000     0          
C3       C      0.295100000000     0.355400000000     0.500000000000     0          
C4       C      0.258400000000     0.319100000000     0.500000000000     0          
H1       H      0.285600000000     0.389400000000     0.500000000000     0          
H2       H      0.224500000000     0.329000000000     0.500000000000     0          
O2       O      0.455500000000     0.544500000000     0.455500000000     0          
Zr1      Zr     0.500000000000     0.500000000000     0.592120000000     0          
C1       C      0.500000000000     0.617600000000     0.617600000000     0          
C2       C      0.500000000000     0.656300000000     0.656300000000     0          
C5       C      0.500000000000     0.730360000000     0.730360000000     0          
O1       O      0.500000000000     0.572900000000     0.632500000000     0          
C3       C      0.500000000000     0.644600000000     0.704900000000     0          
C4       C      0.500000000000     0.680900000000     0.741600000000     0          
H1       H      0.500000000000     0.610600000000     0.714400000000     0          
H2       H      0.500000000000     0.671000000000     0.775500000000     0          
C1       C      0.382400000000     0.500000000000     0.617600000000     0          
C2       C      0.343700000000     0.500000000000     0.656300000000     0          
C5       C      0.269640000000     0.500000000000     0.730360000000     0          
O1       O      0.427100000000     0.500000000000     0.632500000000     0          
C3       C      0.355400000000     0.500000000000     0.704900000000     0          
C4       C      0.319100000000     0.500000000000     0.741600000000     0          
H1       H      0.389400000000     0.500000000000     0.714400000000     0          
H2       H      0.329000000000     0.500000000000     0.775500000000     0          
C1       C      0.500000000000     0.382400000000     0.617600000000     0          
C2       C      0.500000000000     0.343700000000     0.656300000000     0          
C5       C      0.500000000000     0.269640000000     0.730360000000     0          
O1       O      0.500000000000     0.427100000000     0.632500000000     0          
C3       C      0.500000000000     0.355400000000     0.704900000000     0          
C4       C      0.500000000000     0.319100000000     0.741600000000     0          
H1       H      0.500000000000     0.389400000000     0.714400000000     0          
H2       H      0.500000000000     0.329000000000     0.775500000000     0          
C1       C      0.617600000000     0.500000000000     0.617600000000     0          
C2       C      0.656300000000     0.500000000000     0.656300000000     0          
C5       C      0.730360000000     0.500000000000     0.730360000000     0          
O1       O      0.572900000000     0.500000000000     0.632500000000     0          
C3       C      0.644600000000     0.500000000000     0.704900000000     0          
C4       C      0.680900000000     0.500000000000     0.741600000000     0          
H1       H      0.610600000000     0.500000000000     0.714400000000     0          
H2       H      0.671000000000     0.500000000000     0.775500000000     0          
Zr1      Zr     0.500000000000     0.500000000000     0.407880000000     0          
C1       C      0.500000000000     0.382400000000     0.382400000000     0          
C2       C      0.500000000000     0.343700000000     0.343700000000     0          
C5       C      0.500000000000     0.269640000000     0.269640000000     0          
O1       O      0.500000000000     0.427100000000     0.367500000000     0          
C3       C      0.500000000000     0.355400000000     0.295100000000     0          
C4       C      0.500000000000     0.319100000000     0.258400000000     0          
H1       H      0.500000000000     0.389400000000     0.285600000000     0          
H2       H      0.500000000000     0.329000000000     0.224500000000     0          
C1       C      0.617600000000     0.500000000000     0.382400000000     0          
C2       C      0.656300000000     0.500000000000     0.343700000000     0          
C5       C      0.730360000000     0.500000000000     0.269640000000     0          
O1       O      0.572900000000     0.500000000000     0.367500000000     0          
C3       C      0.644600000000     0.500000000000     0.295100000000     0          
C4       C      0.680900000000     0.500000000000     0.258400000000     0          
H1       H      0.610600000000     0.500000000000     0.285600000000     0          
H2       H      0.671000000000     0.500000000000     0.224500000000     0          
C1       C      0.500000000000     0.617600000000     0.382400000000     0          
C2       C      0.500000000000     0.656300000000     0.343700000000     0          
C5       C      0.500000000000     0.730360000000     0.269640000000     0          
O1       O      0.500000000000     0.572900000000     0.367500000000     0          
C3       C      0.500000000000     0.644600000000     0.295100000000     0          
C4       C      0.500000000000     0.680900000000     0.258400000000     0          
H1       H      0.500000000000     0.610600000000     0.285600000000     0          
H2       H      0.500000000000     0.671000000000     0.224500000000     0          
C1       C      0.382400000000     0.500000000000     0.382400000000     0          
C2       C      0.343700000000     0.500000000000     0.343700000000     0          
C5       C      0.269640000000     0.500000000000     0.269640000000     0          
O1       O      0.427100000000     0.500000000000     0.367500000000     0          
C3       C      0.355400000000     0.500000000000     0.295100000000     0          
C4       C      0.319100000000     0.500000000000     0.258400000000     0          
H1       H      0.389400000000     0.500000000000     0.285600000000     0          
H2       H      0.329000000000     0.500000000000     0.224500000000     0          
O1       O      0.632500000000     0.500000000000     0.572900000000     0          
C3       C      0.704900000000     0.500000000000     0.644600000000     0          
C4       C      0.741600000000     0.500000000000     0.680900000000     0          
H1       H      0.714400000000     0.500000000000     0.610600000000     0          
H2       H      0.775500000000     0.500000000000     0.671000000000     0          
O1       O      0.632500000000     0.500000000000     0.427100000000     0          
C3       C      0.704900000000     0.500000000000     0.355400000000     0          
C4       C      0.741600000000     0.500000000000     0.319100000000     0          
H1       H      0.714400000000     0.500000000000     0.389400000000     0          
H2       H      0.775500000000     0.500000000000     0.329000000000     0          
O1       O      0.500000000000     0.632500000000     0.427100000000     0          
C3       C      0.500000000000     0.704900000000     0.355400000000     0          
C4       C      0.500000000000     0.741600000000     0.319100000000     0          
H1       H      0.500000000000     0.714400000000     0.389400000000     0          
H2       H      0.500000000000     0.775500000000     0.329000000000     0          
O1       O      0.367500000000     0.500000000000     0.427100000000     0          
C3       C      0.295100000000     0.500000000000     0.355400000000     0          
C4       C      0.258400000000     0.500000000000     0.319100000000     0          
H1       H      0.285600000000     0.500000000000     0.389400000000     0          
H2       H      0.224500000000     0.500000000000     0.329000000000     0          
O1       O      0.500000000000     0.367500000000     0.427100000000     0          
C3       C      0.500000000000     0.295100000000     0.355400000000     0          
C4       C      0.500000000000     0.258400000000     0.319100000000     0          
H1       H      0.500000000000     0.285600000000     0.389400000000     0          
H2       H      0.500000000000     0.224500000000     0.329000000000     0          
O1       O      0.367500000000     0.500000000000     0.572900000000     0          
C3       C      0.295100000000     0.500000000000     0.644600000000     0          
C4       C      0.258400000000     0.500000000000     0.680900000000     0          
H1       H      0.285600000000     0.500000000000     0.610600000000     0          
H2       H      0.224500000000     0.500000000000     0.671000000000     0          
O1       O      0.500000000000     0.367500000000     0.572900000000     0          
C3       C      0.500000000000     0.295100000000     0.644600000000     0          
C4       C      0.500000000000     0.258400000000     0.680900000000     0          
H1       H      0.500000000000     0.285600000000     0.610600000000     0          
H2       H      0.500000000000     0.224500000000     0.671000000000     0          
O1       O      0.500000000000     0.632500000000     0.572900000000     0          
C3       C      0.500000000000     0.704900000000     0.644600000000     0          
C4       C      0.500000000000     0.741600000000     0.680900000000     0          
H1       H      0.500000000000     0.714400000000     0.610600000000     0          
H2       H      0.500000000000     0.775500000000     0.671000000000     0          
Zr1      Zr     0.500000000000     0.092120000000     0.000000000000     0          
C1       C      0.617600000000     0.117600000000     0.000000000000     0          
C2       C      0.656300000000     0.156300000000     0.000000000000     0          
C5       C      0.730360000000     0.230360000000     0.000000000000     0          
O1       O      0.572900000000     0.132500000000     0.000000000000     0          
C3       C      0.644600000000     0.204900000000     0.000000000000     0          
C4       C      0.680900000000     0.241600000000     0.000000000000     0          
H1       H      0.610600000000     0.214400000000     0.000000000000     0          
H2       H      0.671000000000     0.275500000000     0.000000000000     0          
O2       O      0.455500000000     0.044500000000     0.044500000000     0          
Zr1      Zr     0.407880000000     0.000000000000     0.000000000000     0          
C1       C      0.382400000000     0.117600000000     0.000000000000     0          
C2       C      0.343700000000     0.156300000000     0.000000000000     0          
C5       C      0.269640000000     0.230360000000     0.000000000000     0          
O1       O      0.367500000000     0.072900000000     0.000000000000     0          
C3       C      0.295100000000     0.144600000000     0.000000000000     0          
C4       C      0.258400000000     0.180900000000     0.000000000000     0          
H1       H      0.285600000000     0.110600000000     0.000000000000     0          
H2       H      0.224500000000     0.171000000000     0.000000000000     0          
O2       O      0.455500000000     0.955500000000     0.044500000000     0          
Zr1      Zr     0.500000000000     0.907880000000     0.000000000000     0          
C1       C      0.382400000000     0.882400000000     0.000000000000     0          
C2       C      0.343700000000     0.843700000000     0.000000000000     0          
C5       C      0.269640000000     0.769640000000     0.000000000000     0          
O1       O      0.427100000000     0.867500000000     0.000000000000     0          
C3       C      0.355400000000     0.795100000000     0.000000000000     0          
C4       C      0.319100000000     0.758400000000     0.000000000000     0          
H1       H      0.389400000000     0.785600000000     0.000000000000     0          
H2       H      0.329000000000     0.724500000000     0.000000000000     0          
O2       O      0.544500000000     0.955500000000     0.044500000000     0          
Zr1      Zr     0.592120000000     0.000000000000     0.000000000000     0          
C1       C      0.617600000000     0.882400000000     0.000000000000     0          
C2       C      0.656300000000     0.843700000000     0.000000000000     0          
C5       C      0.730360000000     0.769640000000     0.000000000000     0          
O1       O      0.632500000000     0.927100000000     0.000000000000     0          
C3       C      0.704900000000     0.855400000000     0.000000000000     0          
C4       C      0.741600000000     0.819100000000     0.000000000000     0          
H1       H      0.714400000000     0.889400000000     0.000000000000     0          
H2       H      0.775500000000     0.829000000000     0.000000000000     0          
O2       O      0.544500000000     0.044500000000     0.044500000000     0          
O1       O      0.572900000000     0.867500000000     0.000000000000     0          
C3       C      0.644600000000     0.795100000000     0.000000000000     0          
C4       C      0.680900000000     0.758400000000     0.000000000000     0          
H1       H      0.610600000000     0.785600000000     0.000000000000     0          
H2       H      0.671000000000     0.724500000000     0.000000000000     0          
O2       O      0.455500000000     0.955500000000     0.955500000000     0          
O1       O      0.632500000000     0.072900000000     0.000000000000     0          
C3       C      0.704900000000     0.144600000000     0.000000000000     0          
C4       C      0.741600000000     0.180900000000     0.000000000000     0          
H1       H      0.714400000000     0.110600000000     0.000000000000     0          
H2       H      0.775500000000     0.171000000000     0.000000000000     0          
O2       O      0.544500000000     0.955500000000     0.955500000000     0          
O1       O      0.427100000000     0.132500000000     0.000000000000     0          
C3       C      0.355400000000     0.204900000000     0.000000000000     0          
C4       C      0.319100000000     0.241600000000     0.000000000000     0          
H1       H      0.389400000000     0.214400000000     0.000000000000     0          
H2       H      0.329000000000     0.275500000000     0.000000000000     0          
O2       O      0.544500000000     0.044500000000     0.955500000000     0          
O1       O      0.367500000000     0.927100000000     0.000000000000     0          
C3       C      0.295100000000     0.855400000000     0.000000000000     0          
C4       C      0.258400000000     0.819100000000     0.000000000000     0          
H1       H      0.285600000000     0.889400000000     0.000000000000     0          
H2       H      0.224500000000     0.829000000000     0.000000000000     0          
O2       O      0.455500000000     0.044500000000     0.955500000000     0          
Zr1      Zr     0.500000000000     0.000000000000     0.092120000000     0          
C1       C      0.500000000000     0.117600000000     0.117600000000     0          
C2       C      0.500000000000     0.156300000000     0.156300000000     0          
C5       C      0.500000000000     0.230360000000     0.230360000000     0          
O1       O      0.500000000000     0.072900000000     0.132500000000     0          
C3       C      0.500000000000     0.144600000000     0.204900000000     0          
C4       C      0.500000000000     0.180900000000     0.241600000000     0          
H1       H      0.500000000000     0.110600000000     0.214400000000     0          
H2       H      0.500000000000     0.171000000000     0.275500000000     0          
C1       C      0.382400000000     0.000000000000     0.117600000000     0          
C2       C      0.343700000000     0.000000000000     0.156300000000     0          
C5       C      0.269640000000     0.000000000000     0.230360000000     0          
O1       O      0.427100000000     0.000000000000     0.132500000000     0          
C3       C      0.355400000000     0.000000000000     0.204900000000     0          
C4       C      0.319100000000     0.000000000000     0.241600000000     0          
H1       H      0.389400000000     0.000000000000     0.214400000000     0          
H2       H      0.329000000000     0.000000000000     0.275500000000     0          
C1       C      0.500000000000     0.882400000000     0.117600000000     0          
C2       C      0.500000000000     0.843700000000     0.156300000000     0          
C5       C      0.500000000000     0.769640000000     0.230360000000     0          
O1       O      0.500000000000     0.927100000000     0.132500000000     0          
C3       C      0.500000000000     0.855400000000     0.204900000000     0          
C4       C      0.500000000000     0.819100000000     0.241600000000     0          
H1       H      0.500000000000     0.889400000000     0.214400000000     0          
H2       H      0.500000000000     0.829000000000     0.275500000000     0          
C1       C      0.617600000000     0.000000000000     0.117600000000     0          
C2       C      0.656300000000     0.000000000000     0.156300000000     0          
C5       C      0.730360000000     0.000000000000     0.230360000000     0          
O1       O      0.572900000000     0.000000000000     0.132500000000     0          
C3       C      0.644600000000     0.000000000000     0.204900000000     0          
C4       C      0.680900000000     0.000000000000     0.241600000000     0          
H1       H      0.610600000000     0.000000000000     0.214400000000     0          
H2       H      0.671000000000     0.000000000000     0.275500000000     0          
Zr1      Zr     0.500000000000     0.000000000000     0.907880000000     0          
C1       C      0.500000000000     0.882400000000     0.882400000000     0          
C2       C      0.500000000000     0.843700000000     0.843700000000     0          
C5       C      0.500000000000     0.769640000000     0.769640000000     0          
O1       O      0.500000000000     0.927100000000     0.867500000000     0          
C3       C      0.500000000000     0.855400000000     0.795100000000     0          
C4       C      0.500000000000     0.819100000000     0.758400000000     0          
H1       H      0.500000000000     0.889400000000     0.785600000000     0          
H2       H      0.500000000000     0.829000000000     0.724500000000     0          
C1       C      0.617600000000     0.000000000000     0.882400000000     0          
C2       C      0.656300000000     0.000000000000     0.843700000000     0          
C5       C      0.730360000000     0.000000000000     0.769640000000     0          
O1       O      0.572900000000     0.000000000000     0.867500000000     0          
C3       C      0.644600000000     0.000000000000     0.795100000000     0          
C4       C      0.680900000000     0.000000000000     0.758400000000     0          
H1       H      0.610600000000     0.000000000000     0.785600000000     0          
H2       H      0.671000000000     0.000000000000     0.724500000000     0          
C1       C      0.500000000000     0.117600000000     0.882400000000     0          
C2       C      0.500000000000     0.156300000000     0.843700000000     0          
C5       C      0.500000000000     0.230360000000     0.769640000000     0          
O1       O      0.500000000000     0.072900000000     0.867500000000     0          
C3       C      0.500000000000     0.144600000000     0.795100000000     0          
C4       C      0.500000000000     0.180900000000     0.758400000000     0          
H1       H      0.500000000000     0.110600000000     0.785600000000     0          
H2       H      0.500000000000     0.171000000000     0.724500000000     0          
C1       C      0.382400000000     0.000000000000     0.882400000000     0          
C2       C      0.343700000000     0.000000000000     0.843700000000     0          
C5       C      0.269640000000     0.000000000000     0.769640000000     0          
O1       O      0.427100000000     0.000000000000     0.867500000000     0          
C3       C      0.355400000000     0.000000000000     0.795100000000     0          
C4       C      0.319100000000     0.000000000000     0.758400000000     0          
H1       H      0.389400000000     0.000000000000     0.785600000000     0          
H2       H      0.329000000000     0.000000000000     0.724500000000     0          
O1       O      0.632500000000     0.000000000000     0.072900000000     0          
C3       C      0.704900000000     0.000000000000     0.144600000000     0          
C4       C      0.741600000000     0.000000000000     0.180900000000     0          
H1       H      0.714400000000     0.000000000000     0.110600000000     0          
H2       H      0.775500000000     0.000000000000     0.171000000000     0          
O1       O      0.632500000000     0.000000000000     0.927100000000     0          
C3       C      0.704900000000     0.000000000000     0.855400000000     0          
C4       C      0.741600000000     0.000000000000     0.819100000000     0          
H1       H      0.714400000000     0.000000000000     0.889400000000     0          
H2       H      0.775500000000     0.000000000000     0.829000000000     0          
O1       O      0.500000000000     0.132500000000     0.927100000000     0          
C3       C      0.500000000000     0.204900000000     0.855400000000     0          
C4       C      0.500000000000     0.241600000000     0.819100000000     0          
H1       H      0.500000000000     0.214400000000     0.889400000000     0          
H2       H      0.500000000000     0.275500000000     0.829000000000     0          
O1       O      0.367500000000     0.000000000000     0.927100000000     0          
C3       C      0.295100000000     0.000000000000     0.855400000000     0          
C4       C      0.258400000000     0.000000000000     0.819100000000     0          
H1       H      0.285600000000     0.000000000000     0.889400000000     0          
H2       H      0.224500000000     0.000000000000     0.829000000000     0          
O1       O      0.500000000000     0.867500000000     0.927100000000     0          
C3       C      0.500000000000     0.795100000000     0.855400000000     0          
C4       C      0.500000000000     0.758400000000     0.819100000000     0          
H1       H      0.500000000000     0.785600000000     0.889400000000     0          
H2       H      0.500000000000     0.724500000000     0.829000000000     0          
O1       O      0.367500000000     0.000000000000     0.072900000000     0          
C3       C      0.295100000000     0.000000000000     0.144600000000     0          
C4       C      0.258400000000     0.000000000000     0.180900000000     0          
H1       H      0.285600000000     0.000000000000     0.110600000000     0          
H2       H      0.224500000000     0.000000000000     0.171000000000     0          
O1       O      0.500000000000     0.867500000000     0.072900000000     0          
C3       C      0.500000000000     0.795100000000     0.144600000000     0          
C4       C      0.500000000000     0.758400000000     0.180900000000     0          
H1       H      0.500000000000     0.785600000000     0.110600000000     0          
H2       H      0.500000000000     0.724500000000     0.171000000000     0          
O1       O      0.500000000000     0.132500000000     0.072900000000     0          
C3       C      0.500000000000     0.204900000000     0.144600000000     0          
C4       C      0.500000000000     0.241600000000     0.180900000000     0          
H1       H      0.500000000000     0.214400000000     0.110600000000     0          
H2       H      0.500000000000     0.275500000000     0.171000000000     0          
Zr1      Zr     0.000000000000     0.592120000000     0.000000000000     0          
C1       C      0.117600000000     0.617600000000     0.000000000000     0          
C2       C      0.156300000000     0.656300000000     0.000000000000     0          
C5       C      0.230360000000     0.730360000000     0.000000000000     0          
O1       O      0.072900000000     0.632500000000     0.000000000000     0          
C3       C      0.144600000000     0.704900000000     0.000000000000     0          
C4       C      0.180900000000     0.741600000000     0.000000000000     0          
H1       H      0.110600000000     0.714400000000     0.000000000000     0          
H2       H      0.171000000000     0.775500000000     0.000000000000     0          
O2       O      0.955500000000     0.544500000000     0.044500000000     0          
Zr1      Zr     0.907880000000     0.500000000000     0.000000000000     0          
C1       C      0.882400000000     0.617600000000     0.000000000000     0          
C2       C      0.843700000000     0.656300000000     0.000000000000     0          
C5       C      0.769640000000     0.730360000000     0.000000000000     0          
O1       O      0.867500000000     0.572900000000     0.000000000000     0          
C3       C      0.795100000000     0.644600000000     0.000000000000     0          
C4       C      0.758400000000     0.680900000000     0.000000000000     0          
H1       H      0.785600000000     0.610600000000     0.000000000000     0          
H2       H      0.724500000000     0.671000000000     0.000000000000     0          
O2       O      0.955500000000     0.455500000000     0.044500000000     0          
Zr1      Zr     0.000000000000     0.407880000000     0.000000000000     0          
C1       C      0.882400000000     0.382400000000     0.000000000000     0          
C2       C      0.843700000000     0.343700000000     0.000000000000     0          
C5       C      0.769640000000     0.269640000000     0.000000000000     0          
O1       O      0.927100000000     0.367500000000     0.000000000000     0          
C3       C      0.855400000000     0.295100000000     0.000000000000     0          
C4       C      0.819100000000     0.258400000000     0.000000000000     0          
H1       H      0.889400000000     0.285600000000     0.000000000000     0          
H2       H      0.829000000000     0.224500000000     0.000000000000     0          
O2       O      0.044500000000     0.455500000000     0.044500000000     0          
Zr1      Zr     0.092120000000     0.500000000000     0.000000000000     0          
C1       C      0.117600000000     0.382400000000     0.000000000000     0          
C2       C      0.156300000000     0.343700000000     0.000000000000     0          
C5       C      0.230360000000     0.269640000000     0.000000000000     0          
O1       O      0.132500000000     0.427100000000     0.000000000000     0          
C3       C      0.204900000000     0.355400000000     0.000000000000     0          
C4       C      0.241600000000     0.319100000000     0.000000000000     0          
H1       H      0.214400000000     0.389400000000     0.000000000000     0          
H2       H      0.275500000000     0.329000000000     0.000000000000     0          
O2       O      0.044500000000     0.544500000000     0.044500000000     0          
O1       O      0.072900000000     0.367500000000     0.000000000000     0          
C3       C      0.144600000000     0.295100000000     0.000000000000     0          
C4       C      0.180900000000     0.258400000000     0.000000000000     0          
H1       H      0.110600000000     0.285600000000     0.000000000000     0          
H2       H      0.171000000000     0.224500000000     0.000000000000     0          
O2       O      0.955500000000     0.455500000000     0.955500000000     0          
O1       O      0.132500000000     0.572900000000     0.000000000000     0          
C3       C      0.204900000000     0.644600000000     0.000000000000     0          
C4       C      0.241600000000     0.680900000000     0.000000000000     0          
H1       H      0.214400000000     0.610600000000     0.000000000000     0          
H2       H      0.275500000000     0.671000000000     0.000000000000     0          
O2       O      0.044500000000     0.455500000000     0.955500000000     0          
O1       O      0.927100000000     0.632500000000     0.000000000000     0          
C3       C      0.855400000000     0.704900000000     0.000000000000     0          
C4       C      0.819100000000     0.741600000000     0.000000000000     0          
H1       H      0.889400000000     0.714400000000     0.000000000000     0          
H2       H      0.829000000000     0.775500000000     0.000000000000     0          
O2       O      0.044500000000     0.544500000000     0.955500000000     0          
O1       O      0.867500000000     0.427100000000     0.000000000000     0          
C3       C      0.795100000000     0.355400000000     0.000000000000     0          
C4       C      0.758400000000     0.319100000000     0.000000000000     0          
H1       H      0.785600000000     0.389400000000     0.000000000000     0          
H2       H      0.724500000000     0.329000000000     0.000000000000     0          
O2       O      0.955500000000     0.544500000000     0.955500000000     0          
Zr1      Zr     0.000000000000     0.500000000000     0.092120000000     0          
C1       C      0.000000000000     0.617600000000     0.117600000000     0          
C2       C      0.000000000000     0.656300000000     0.156300000000     0          
C5       C      0.000000000000     0.730360000000     0.230360000000     0          
O1       O      0.000000000000     0.572900000000     0.132500000000     0          
C3       C      0.000000000000     0.644600000000     0.204900000000     0          
C4       C      0.000000000000     0.680900000000     0.241600000000     0          
H1       H      0.000000000000     0.610600000000     0.214400000000     0          
H2       H      0.000000000000     0.671000000000     0.275500000000     0          
C1       C      0.882400000000     0.500000000000     0.117600000000     0          
C2       C      0.843700000000     0.500000000000     0.156300000000     0          
C5       C      0.769640000000     0.500000000000     0.230360000000     0          
O1       O      0.927100000000     0.500000000000     0.132500000000     0          
C3       C      0.855400000000     0.500000000000     0.204900000000     0          
C4       C      0.819100000000     0.500000000000     0.241600000000     0          
H1       H      0.889400000000     0.500000000000     0.214400000000     0          
H2       H      0.829000000000     0.500000000000     0.275500000000     0          
C1       C      0.000000000000     0.382400000000     0.117600000000     0          
C2       C      0.000000000000     0.343700000000     0.156300000000     0          
C5       C      0.000000000000     0.269640000000     0.230360000000     0          
O1       O      0.000000000000     0.427100000000     0.132500000000     0          
C3       C      0.000000000000     0.355400000000     0.204900000000     0          
C4       C      0.000000000000     0.319100000000     0.241600000000     0          
H1       H      0.000000000000     0.389400000000     0.214400000000     0          
H2       H      0.000000000000     0.329000000000     0.275500000000     0          
C1       C      0.117600000000     0.500000000000     0.117600000000     0          
C2       C      0.156300000000     0.500000000000     0.156300000000     0          
C5       C      0.230360000000     0.500000000000     0.230360000000     0          
O1       O      0.072900000000     0.500000000000     0.132500000000     0          
C3       C      0.144600000000     0.500000000000     0.204900000000     0          
C4       C      0.180900000000     0.500000000000     0.241600000000     0          
H1       H      0.110600000000     0.500000000000     0.214400000000     0          
H2       H      0.171000000000     0.500000000000     0.275500000000     0          
Zr1      Zr     0.000000000000     0.500000000000     0.907880000000     0          
C1       C      0.000000000000     0.382400000000     0.882400000000     0          
C2       C      0.000000000000     0.343700000000     0.843700000000     0          
C5       C      0.000000000000     0.269640000000     0.769640000000     0          
O1       O      0.000000000000     0.427100000000     0.867500000000     0          
C3       C      0.000000000000     0.355400000000     0.795100000000     0          
C4       C      0.000000000000     0.319100000000     0.758400000000     0          
H1       H      0.000000000000     0.389400000000     0.785600000000     0          
H2       H      0.000000000000     0.329000000000     0.724500000000     0          
C1       C      0.117600000000     0.500000000000     0.882400000000     0          
C2       C      0.156300000000     0.500000000000     0.843700000000     0          
C5       C      0.230360000000     0.500000000000     0.769640000000     0          
O1       O      0.072900000000     0.500000000000     0.867500000000     0          
C3       C      0.144600000000     0.500000000000     0.795100000000     0          
C4       C      0.180900000000     0.500000000000     0.758400000000     0          
H1       H      0.110600000000     0.500000000000     0.785600000000     0          
H2       H      0.171000000000     0.500000000000     0.724500000000     0          
C1       C      0.000000000000     0.617600000000     0.882400000000     0          
C2       C      0.000000000000     0.656300000000     0.843700000000     0          
C5       C      0.000000000000     0.730360000000     0.769640000000     0          
O1       O      0.000000000000     0.572900000000     0.867500000000     0          
C3       C      0.000000000000     0.644600000000     0.795100000000     0          
C4       C      0.000000000000     0.680900000000     0.758400000000     0          
H1       H      0.000000000000     0.610600000000     0.785600000000     0          
H2       H      0.000000000000     0.671000000000     0.724500000000     0          
C1       C      0.882400000000     0.500000000000     0.882400000000     0          
C2       C      0.843700000000     0.500000000000     0.843700000000     0          
C5       C      0.769640000000     0.500000000000     0.769640000000     0          
O1       O      0.927100000000     0.500000000000     0.867500000000     0          
C3       C      0.855400000000     0.500000000000     0.795100000000     0          
C4       C      0.819100000000     0.500000000000     0.758400000000     0          
H1       H      0.889400000000     0.500000000000     0.785600000000     0          
H2       H      0.829000000000     0.500000000000     0.724500000000     0          
O1       O      0.132500000000     0.500000000000     0.072900000000     0          
C3       C      0.204900000000     0.500000000000     0.144600000000     0          
C4       C      0.241600000000     0.500000000000     0.180900000000     0          
H1       H      0.214400000000     0.500000000000     0.110600000000     0          
H2       H      0.275500000000     0.500000000000     0.171000000000     0          
O1       O      0.132500000000     0.500000000000     0.927100000000     0          
C3       C      0.204900000000     0.500000000000     0.855400000000     0          
C4       C      0.241600000000     0.500000000000     0.819100000000     0          
H1       H      0.214400000000     0.500000000000     0.889400000000     0          
H2       H      0.275500000000     0.500000000000     0.829000000000     0          
O1       O      0.000000000000     0.632500000000     0.927100000000     0          
C3       C      0.000000000000     0.704900000000     0.855400000000     0          
C4       C      0.000000000000     0.741600000000     0.819100000000     0          
H1       H      0.000000000000     0.714400000000     0.889400000000     0          
H2       H      0.000000000000     0.775500000000     0.829000000000     0          
O1       O      0.867500000000     0.500000000000     0.927100000000     0          
C3       C      0.795100000000     0.500000000000     0.855400000000     0          
C4       C      0.758400000000     0.500000000000     0.819100000000     0          
H1       H      0.785600000000     0.500000000000     0.889400000000     0          
H2       H      0.724500000000     0.500000000000     0.829000000000     0          
O1       O      0.000000000000     0.367500000000     0.927100000000     0          
C3       C      0.000000000000     0.295100000000     0.855400000000     0          
C4       C      0.000000000000     0.258400000000     0.819100000000     0          
H1       H      0.000000000000     0.285600000000     0.889400000000     0          
H2       H      0.000000000000     0.224500000000     0.829000000000     0          
O1       O      0.867500000000     0.500000000000     0.072900000000     0          
C3       C      0.795100000000     0.500000000000     0.144600000000     0          
C4       C      0.758400000000     0.500000000000     0.180900000000     0          
H1       H      0.785600000000     0.500000000000     0.110600000000     0          
H2       H      0.724500000000     0.500000000000     0.171000000000     0          
O1       O      0.000000000000     0.367500000000     0.072900000000     0          
C3       C      0.000000000000     0.295100000000     0.144600000000     0          
C4       C      0.000000000000     0.258400000000     0.180900000000     0          
H1       H      0.000000000000     0.285600000000     0.110600000000     0          
H2       H      0.000000000000     0.224500000000     0.171000000000     0          
O1       O      0.000000000000     0.632500000000     0.072900000000     0          
C3       C      0.000000000000     0.704900000000     0.144600000000     0          
C4       C      0.000000000000     0.741600000000     0.180900000000     0          
H1       H      0.000000000000     0.714400000000     0.110600000000     0          
H2       H      0.000000000000     0.775500000000     0.171000000000     0          
Zr1      Zr     0.000000000000     0.092120000000     0.500000000000     0          
C1       C      0.117600000000     0.117600000000     0.500000000000     0          
C2       C      0.156300000000     0.156300000000     0.500000000000     0          
C5       C      0.230360000000     0.230360000000     0.500000000000     0          
O1       O      0.072900000000     0.132500000000     0.500000000000     0          
C3       C      0.144600000000     0.204900000000     0.500000000000     0          
C4       C      0.180900000000     0.241600000000     0.500000000000     0          
H1       H      0.110600000000     0.214400000000     0.500000000000     0          
H2       H      0.171000000000     0.275500000000     0.500000000000     0          
O2       O      0.955500000000     0.044500000000     0.544500000000     0          
Zr1      Zr     0.907880000000     0.000000000000     0.500000000000     0          
C1       C      0.882400000000     0.117600000000     0.500000000000     0          
C2       C      0.843700000000     0.156300000000     0.500000000000     0          
C5       C      0.769640000000     0.230360000000     0.500000000000     0          
O1       O      0.867500000000     0.072900000000     0.500000000000     0          
C3       C      0.795100000000     0.144600000000     0.500000000000     0          
C4       C      0.758400000000     0.180900000000     0.500000000000     0          
H1       H      0.785600000000     0.110600000000     0.500000000000     0          
H2       H      0.724500000000     0.171000000000     0.500000000000     0          
O2       O      0.955500000000     0.955500000000     0.544500000000     0          
Zr1      Zr     0.000000000000     0.907880000000     0.500000000000     0          
C1       C      0.882400000000     0.882400000000     0.500000000000     0          
C2       C      0.843700000000     0.843700000000     0.500000000000     0          
C5       C      0.769640000000     0.769640000000     0.500000000000     0          
O1       O      0.927100000000     0.867500000000     0.500000000000     0          
C3       C      0.855400000000     0.795100000000     0.500000000000     0          
C4       C      0.819100000000     0.758400000000     0.500000000000     0          
H1       H      0.889400000000     0.785600000000     0.500000000000     0          
H2       H      0.829000000000     0.724500000000     0.500000000000     0          
O2       O      0.044500000000     0.955500000000     0.544500000000     0          
Zr1      Zr     0.092120000000     0.000000000000     0.500000000000     0          
C1       C      0.117600000000     0.882400000000     0.500000000000     0          
C2       C      0.156300000000     0.843700000000     0.500000000000     0          
C5       C      0.230360000000     0.769640000000     0.500000000000     0          
O1       O      0.132500000000     0.927100000000     0.500000000000     0          
C3       C      0.204900000000     0.855400000000     0.500000000000     0          
C4       C      0.241600000000     0.819100000000     0.500000000000     0          
H1       H      0.214400000000     0.889400000000     0.500000000000     0          
H2       H      0.275500000000     0.829000000000     0.500000000000     0          
O2       O      0.044500000000     0.044500000000     0.544500000000     0          
O1       O      0.072900000000     0.867500000000     0.500000000000     0          
C3       C      0.144600000000     0.795100000000     0.500000000000     0          
C4       C      0.180900000000     0.758400000000     0.500000000000     0          
H1       H      0.110600000000     0.785600000000     0.500000000000     0          
H2       H      0.171000000000     0.724500000000     0.500000000000     0          
O2       O      0.955500000000     0.955500000000     0.455500000000     0          
O1       O      0.132500000000     0.072900000000     0.500000000000     0          
C3       C      0.204900000000     0.144600000000     0.500000000000     0          
C4       C      0.241600000000     0.180900000000     0.500000000000     0          
H1       H      0.214400000000     0.110600000000     0.500000000000     0          
H2       H      0.275500000000     0.171000000000     0.500000000000     0          
O2       O      0.044500000000     0.955500000000     0.455500000000     0          
O1       O      0.927100000000     0.132500000000     0.500000000000     0          
C3       C      0.855400000000     0.204900000000     0.500000000000     0          
C4       C      0.819100000000     0.241600000000     0.500000000000     0          
H1       H      0.889400000000     0.214400000000     0.500000000000     0          
H2       H      0.829000000000     0.275500000000     0.500000000000     0          
O2       O      0.044500000000     0.044500000000     0.455500000000     0          
O1       O      0.867500000000     0.927100000000     0.500000000000     0          
C3       C      0.795100000000     0.855400000000     0.500000000000     0          
C4       C      0.758400000000     0.819100000000     0.500000000000     0          
H1       H      0.785600000000     0.889400000000     0.500000000000     0          
H2       H      0.724500000000     0.829000000000     0.500000000000     0          
O2       O      0.955500000000     0.044500000000     0.455500000000     0          
Zr1      Zr     0.000000000000     0.000000000000     0.592120000000     0          
C1       C      0.000000000000     0.117600000000     0.617600000000     0          
C2       C      0.000000000000     0.156300000000     0.656300000000     0          
C5       C      0.000000000000     0.230360000000     0.730360000000     0          
O1       O      0.000000000000     0.072900000000     0.632500000000     0          
C3       C      0.000000000000     0.144600000000     0.704900000000     0          
C4       C      0.000000000000     0.180900000000     0.741600000000     0          
H1       H      0.000000000000     0.110600000000     0.714400000000     0          
H2       H      0.000000000000     0.171000000000     0.775500000000     0          
C1       C      0.882400000000     0.000000000000     0.617600000000     0          
C2       C      0.843700000000     0.000000000000     0.656300000000     0          
C5       C      0.769640000000     0.000000000000     0.730360000000     0          
O1       O      0.927100000000     0.000000000000     0.632500000000     0          
C3       C      0.855400000000     0.000000000000     0.704900000000     0          
C4       C      0.819100000000     0.000000000000     0.741600000000     0          
H1       H      0.889400000000     0.000000000000     0.714400000000     0          
H2       H      0.829000000000     0.000000000000     0.775500000000     0          
C1       C      0.000000000000     0.882400000000     0.617600000000     0          
C2       C      0.000000000000     0.843700000000     0.656300000000     0          
C5       C      0.000000000000     0.769640000000     0.730360000000     0          
O1       O      0.000000000000     0.927100000000     0.632500000000     0          
C3       C      0.000000000000     0.855400000000     0.704900000000     0          
C4       C      0.000000000000     0.819100000000     0.741600000000     0          
H1       H      0.000000000000     0.889400000000     0.714400000000     0          
H2       H      0.000000000000     0.829000000000     0.775500000000     0          
C1       C      0.117600000000     0.000000000000     0.617600000000     0          
C2       C      0.156300000000     0.000000000000     0.656300000000     0          
C5       C      0.230360000000     0.000000000000     0.730360000000     0          
O1       O      0.072900000000     0.000000000000     0.632500000000     0          
C3       C      0.144600000000     0.000000000000     0.704900000000     0          
C4       C      0.180900000000     0.000000000000     0.741600000000     0          
H1       H      0.110600000000     0.000000000000     0.714400000000     0          
H2       H      0.171000000000     0.000000000000     0.775500000000     0          
Zr1      Zr     0.000000000000     0.000000000000     0.407880000000     0          
C1       C      0.000000000000     0.882400000000     0.382400000000     0          
C2       C      0.000000000000     0.843700000000     0.343700000000     0          
C5       C      0.000000000000     0.769640000000     0.269640000000     0          
O1       O      0.000000000000     0.927100000000     0.367500000000     0          
C3       C      0.000000000000     0.855400000000     0.295100000000     0          
C4       C      0.000000000000     0.819100000000     0.258400000000     0          
H1       H      0.000000000000     0.889400000000     0.285600000000     0          
H2       H      0.000000000000     0.829000000000     0.224500000000     0          
C1       C      0.117600000000     0.000000000000     0.382400000000     0          
C2       C      0.156300000000     0.000000000000     0.343700000000     0          
C5       C      0.230360000000     0.000000000000     0.269640000000     0          
O1       O      0.072900000000     0.000000000000     0.367500000000     0          
C3       C      0.144600000000     0.000000000000     0.295100000000     0          
C4       C      0.180900000000     0.000000000000     0.258400000000     0          
H1       H      0.110600000000     0.000000000000     0.285600000000     0          
H2       H      0.171000000000     0.000000000000     0.224500000000     0          
C1       C      0.000000000000     0.117600000000     0.382400000000     0          
C2       C      0.000000000000     0.156300000000     0.343700000000     0          
C5       C      0.000000000000     0.230360000000     0.269640000000     0          
O1       O      0.000000000000     0.072900000000     0.367500000000     0          
C3       C      0.000000000000     0.144600000000     0.295100000000     0          
C4       C      0.000000000000     0.180900000000     0.258400000000     0          
H1       H      0.000000000000     0.110600000000     0.285600000000     0          
H2       H      0.000000000000     0.171000000000     0.224500000000     0          
C1       C      0.882400000000     0.000000000000     0.382400000000     0          
C2       C      0.843700000000     0.000000000000     0.343700000000     0          
C5       C      0.769640000000     0.000000000000     0.269640000000     0          
O1       O      0.927100000000     0.000000000000     0.367500000000     0          
C3       C      0.855400000000     0.000000000000     0.295100000000     0          
C4       C      0.819100000000     0.000000000000     0.258400000000     0          
H1       H      0.889400000000     0.000000000000     0.285600000000     0          
H2       H      0.829000000000     0.000000000000     0.224500000000     0          
O1       O      0.132500000000     0.000000000000     0.572900000000     0          
C3       C      0.204900000000     0.000000000000     0.644600000000     0          
C4       C      0.241600000000     0.000000000000     0.680900000000     0          
H1       H      0.214400000000     0.000000000000     0.610600000000     0          
H2       H      0.275500000000     0.000000000000     0.671000000000     0          
O1       O      0.132500000000     0.000000000000     0.427100000000     0          
C3       C      0.204900000000     0.000000000000     0.355400000000     0          
C4       C      0.241600000000     0.000000000000     0.319100000000     0          
H1       H      0.214400000000     0.000000000000     0.389400000000     0          
H2       H      0.275500000000     0.000000000000     0.329000000000     0          
O1       O      0.000000000000     0.132500000000     0.427100000000     0          
C3       C      0.000000000000     0.204900000000     0.355400000000     0          
C4       C      0.000000000000     0.241600000000     0.319100000000     0          
H1       H      0.000000000000     0.214400000000     0.389400000000     0          
H2       H      0.000000000000     0.275500000000     0.329000000000     0          
O1       O      0.867500000000     0.000000000000     0.427100000000     0          
C3       C      0.795100000000     0.000000000000     0.355400000000     0          
C4       C      0.758400000000     0.000000000000     0.319100000000     0          
H1       H      0.785600000000     0.000000000000     0.389400000000     0          
H2       H      0.724500000000     0.000000000000     0.329000000000     0          
O1       O      0.000000000000     0.867500000000     0.427100000000     0          
C3       C      0.000000000000     0.795100000000     0.355400000000     0          
C4       C      0.000000000000     0.758400000000     0.319100000000     0          
H1       H      0.000000000000     0.785600000000     0.389400000000     0          
H2       H      0.000000000000     0.724500000000     0.329000000000     0          
O1       O      0.867500000000     0.000000000000     0.572900000000     0          
C3       C      0.795100000000     0.000000000000     0.644600000000     0          
C4       C      0.758400000000     0.000000000000     0.680900000000     0          
H1       H      0.785600000000     0.000000000000     0.610600000000     0          
H2       H      0.724500000000     0.000000000000     0.671000000000     0          
O1       O      0.000000000000     0.867500000000     0.572900000000     0          
C3       C      0.000000000000     0.795100000000     0.644600000000     0          
C4       C      0.000000000000     0.758400000000     0.680900000000     0          
H1       H      0.000000000000     0.785600000000     0.610600000000     0          
H2       H      0.000000000000     0.724500000000     0.671000000000     0          
O1       O      0.000000000000     0.132500000000     0.572900000000     0          
C3       C      0.000000000000     0.204900000000     0.644600000000     0          
C4       C      0.000000000000     0.241600000000     0.680900000000     0          
H1       H      0.000000000000     0.214400000000     0.610600000000     0          
H2       H      0.000000000000     0.275500000000     0.671000000000     0          


