data_WIZMAV

_audit_creation_method RASPA-1.0
_audit_creation_date 2020-11-2
_audit_author_name 'Rocio Bueno-Perez'

_cell_length_a    26.896
_cell_length_b    26.896
_cell_length_c    26.896
_cell_angle_alpha 90
_cell_angle_beta  90
_cell_angle_gamma 90
_cell_volume      19456.4

_symmetry_cell_setting          triclinic
_symmetry_space_group_name_Hall 'P 1'
_symmetry_space_group_name_H-M  'P 1'
_symmetry_Int_Tables_number     1

_symmetry_equiv_pos_as_xyz 'x,y,z'

loop_
_atom_site_label
_atom_site_type_symbol
_atom_site_fract_x
_atom_site_fract_y
_atom_site_fract_z
_atom_site_charge
Zr1      Zr     0.092040000000     0.000000000000     0.000000000000     0          
Zr2      Zr     0.092040000000     0.500000000000     0.500000000000     0          
Zr3      Zr     0.592040000000     0.000000000000     0.500000000000     0          
Zr4      Zr     0.592040000000     0.500000000000     0.000000000000     0          
Zr5      Zr     0.907960000000     0.000000000000     0.000000000000     0          
Zr6      Zr     0.907960000000     0.500000000000     0.500000000000     0          
Zr7      Zr     0.407960000000     0.000000000000     0.500000000000     0          
Zr8      Zr     0.407960000000     0.500000000000     0.000000000000     0          
Zr9      Zr     0.000000000000     0.092040000000     0.000000000000     0          
Zr10     Zr     0.000000000000     0.592040000000     0.500000000000     0          
Zr11     Zr     0.500000000000     0.092040000000     0.500000000000     0          
Zr12     Zr     0.500000000000     0.592040000000     0.000000000000     0          
Zr13     Zr     0.000000000000     0.907960000000     0.000000000000     0          
Zr14     Zr     0.000000000000     0.407960000000     0.500000000000     0          
Zr15     Zr     0.500000000000     0.907960000000     0.500000000000     0          
Zr16     Zr     0.500000000000     0.407960000000     0.000000000000     0          
Zr17     Zr     0.000000000000     0.000000000000     0.092040000000     0          
Zr18     Zr     0.000000000000     0.500000000000     0.592040000000     0          
Zr19     Zr     0.500000000000     0.000000000000     0.592040000000     0          
Zr20     Zr     0.500000000000     0.500000000000     0.092040000000     0          
Zr21     Zr     0.000000000000     0.000000000000     0.907960000000     0          
Zr22     Zr     0.000000000000     0.500000000000     0.407960000000     0          
Zr23     Zr     0.500000000000     0.000000000000     0.407960000000     0          
Zr24     Zr     0.500000000000     0.500000000000     0.907960000000     0          
O25      O      0.045400000000     0.045400000000     0.045400000000     0          
O26      O      0.045400000000     0.545400000000     0.545400000000     0          
O27      O      0.545400000000     0.045400000000     0.545400000000     0          
O28      O      0.545400000000     0.545400000000     0.045400000000     0          
O29      O      0.954600000000     0.954600000000     0.045400000000     0          
O30      O      0.954600000000     0.454600000000     0.545400000000     0          
O31      O      0.454600000000     0.954600000000     0.545400000000     0          
O32      O      0.454600000000     0.454600000000     0.045400000000     0          
O33      O      0.954600000000     0.045400000000     0.954600000000     0          
O34      O      0.954600000000     0.545400000000     0.454600000000     0          
O35      O      0.454600000000     0.045400000000     0.454600000000     0          
O36      O      0.454600000000     0.545400000000     0.954600000000     0          
O37      O      0.045400000000     0.954600000000     0.954600000000     0          
O38      O      0.045400000000     0.454600000000     0.454600000000     0          
O39      O      0.545400000000     0.954600000000     0.454600000000     0          
O40      O      0.545400000000     0.454600000000     0.954600000000     0          
O41      O      0.045400000000     0.045400000000     0.954600000000     0          
O42      O      0.045400000000     0.545400000000     0.454600000000     0          
O43      O      0.545400000000     0.045400000000     0.454600000000     0          
O44      O      0.545400000000     0.545400000000     0.954600000000     0          
O45      O      0.954600000000     0.954600000000     0.954600000000     0          
O46      O      0.954600000000     0.454600000000     0.454600000000     0          
O47      O      0.454600000000     0.954600000000     0.454600000000     0          
O48      O      0.454600000000     0.454600000000     0.954600000000     0          
O49      O      0.045400000000     0.954600000000     0.045400000000     0          
O50      O      0.045400000000     0.454600000000     0.545400000000     0          
O51      O      0.545400000000     0.954600000000     0.545400000000     0          
O52      O      0.545400000000     0.454600000000     0.045400000000     0          
O53      O      0.954600000000     0.045400000000     0.045400000000     0          
O54      O      0.954600000000     0.545400000000     0.545400000000     0          
O55      O      0.454600000000     0.045400000000     0.545400000000     0          
O56      O      0.454600000000     0.545400000000     0.045400000000     0          
O57      O      0.132600000000     0.000000000000     0.071900000000     0          
C58      C      0.205800000000     0.000000000000     0.144700000000     0          
H59      H      0.214900000000     0.000000000000     0.111400000000     0          
C60      C      0.242000000000     0.000000000000     0.179500000000     0          
H61      H      0.275100000000     0.000000000000     0.169500000000     0          
O62      O      0.132600000000     0.500000000000     0.571900000000     0          
C63      C      0.205800000000     0.500000000000     0.644700000000     0          
H64      H      0.214900000000     0.500000000000     0.611400000000     0          
C65      C      0.242000000000     0.500000000000     0.679500000000     0          
H66      H      0.275100000000     0.500000000000     0.669500000000     0          
O67      O      0.632600000000     0.000000000000     0.571900000000     0          
C68      C      0.705800000000     0.000000000000     0.644700000000     0          
H69      H      0.714900000000     0.000000000000     0.611400000000     0          
C70      C      0.742000000000     0.000000000000     0.679500000000     0          
H71      H      0.775100000000     0.000000000000     0.669500000000     0          
O72      O      0.632600000000     0.500000000000     0.071900000000     0          
C73      C      0.705800000000     0.500000000000     0.144700000000     0          
H74      H      0.714900000000     0.500000000000     0.111400000000     0          
C75      C      0.742000000000     0.500000000000     0.179500000000     0          
H76      H      0.775100000000     0.500000000000     0.169500000000     0          
O77      O      0.867400000000     0.000000000000     0.071900000000     0          
C78      C      0.794200000000     0.000000000000     0.144700000000     0          
H79      H      0.785100000000     0.000000000000     0.111400000000     0          
C80      C      0.758000000000     0.000000000000     0.179500000000     0          
H81      H      0.724900000000     0.000000000000     0.169500000000     0          
O82      O      0.867400000000     0.500000000000     0.571900000000     0          
C83      C      0.794200000000     0.500000000000     0.644700000000     0          
H84      H      0.785100000000     0.500000000000     0.611400000000     0          
C85      C      0.758000000000     0.500000000000     0.679500000000     0          
H86      H      0.724900000000     0.500000000000     0.669500000000     0          
O87      O      0.367400000000     0.000000000000     0.571900000000     0          
C88      C      0.294200000000     0.000000000000     0.644700000000     0          
H89      H      0.285100000000     0.000000000000     0.611400000000     0          
C90      C      0.258000000000     0.000000000000     0.679500000000     0          
H91      H      0.224900000000     0.000000000000     0.669500000000     0          
O92      O      0.367400000000     0.500000000000     0.071900000000     0          
C93      C      0.294200000000     0.500000000000     0.144700000000     0          
H94      H      0.285100000000     0.500000000000     0.111400000000     0          
C95      C      0.258000000000     0.500000000000     0.179500000000     0          
H96      H      0.224900000000     0.500000000000     0.169500000000     0          
O97      O      0.867400000000     0.000000000000     0.928100000000     0          
C98      C      0.794200000000     0.000000000000     0.855300000000     0          
H99      H      0.785100000000     0.000000000000     0.888600000000     0          
C100     C      0.758000000000     0.000000000000     0.820500000000     0          
H101     H      0.724900000000     0.000000000000     0.830500000000     0          
O102     O      0.867400000000     0.500000000000     0.428100000000     0          
C103     C      0.794200000000     0.500000000000     0.355300000000     0          
H104     H      0.785100000000     0.500000000000     0.388600000000     0          
C105     C      0.758000000000     0.500000000000     0.320500000000     0          
H106     H      0.724900000000     0.500000000000     0.330500000000     0          
O107     O      0.367400000000     0.000000000000     0.428100000000     0          
C108     C      0.294200000000     0.000000000000     0.355300000000     0          
H109     H      0.285100000000     0.000000000000     0.388600000000     0          
C110     C      0.258000000000     0.000000000000     0.320500000000     0          
H111     H      0.224900000000     0.000000000000     0.330500000000     0          
O112     O      0.367400000000     0.500000000000     0.928100000000     0          
C113     C      0.294200000000     0.500000000000     0.855300000000     0          
H114     H      0.285100000000     0.500000000000     0.888600000000     0          
C115     C      0.258000000000     0.500000000000     0.820500000000     0          
H116     H      0.224900000000     0.500000000000     0.830500000000     0          
O117     O      0.132600000000     0.000000000000     0.928100000000     0          
C118     C      0.205800000000     0.000000000000     0.855300000000     0          
H119     H      0.214900000000     0.000000000000     0.888600000000     0          
C120     C      0.242000000000     0.000000000000     0.820500000000     0          
H121     H      0.275100000000     0.000000000000     0.830500000000     0          
O122     O      0.132600000000     0.500000000000     0.428100000000     0          
C123     C      0.205800000000     0.500000000000     0.355300000000     0          
H124     H      0.214900000000     0.500000000000     0.388600000000     0          
C125     C      0.242000000000     0.500000000000     0.320500000000     0          
H126     H      0.275100000000     0.500000000000     0.330500000000     0          
O127     O      0.632600000000     0.000000000000     0.428100000000     0          
C128     C      0.705800000000     0.000000000000     0.355300000000     0          
H129     H      0.714900000000     0.000000000000     0.388600000000     0          
C130     C      0.742000000000     0.000000000000     0.320500000000     0          
H131     H      0.775100000000     0.000000000000     0.330500000000     0          
O132     O      0.632600000000     0.500000000000     0.928100000000     0          
C133     C      0.705800000000     0.500000000000     0.855300000000     0          
H134     H      0.714900000000     0.500000000000     0.888600000000     0          
C135     C      0.742000000000     0.500000000000     0.820500000000     0          
H136     H      0.775100000000     0.500000000000     0.830500000000     0          
O137     O      0.071900000000     0.132600000000     0.000000000000     0          
C138     C      0.144700000000     0.205800000000     0.000000000000     0          
H139     H      0.111400000000     0.214900000000     0.000000000000     0          
C140     C      0.179500000000     0.242000000000     0.000000000000     0          
H141     H      0.169500000000     0.275100000000     0.000000000000     0          
O142     O      0.071900000000     0.632600000000     0.500000000000     0          
C143     C      0.144700000000     0.705800000000     0.500000000000     0          
H144     H      0.111400000000     0.714900000000     0.500000000000     0          
C145     C      0.179500000000     0.742000000000     0.500000000000     0          
H146     H      0.169500000000     0.775100000000     0.500000000000     0          
O147     O      0.571900000000     0.132600000000     0.500000000000     0          
C148     C      0.644700000000     0.205800000000     0.500000000000     0          
H149     H      0.611400000000     0.214900000000     0.500000000000     0          
C150     C      0.679500000000     0.242000000000     0.500000000000     0          
H151     H      0.669500000000     0.275100000000     0.500000000000     0          
O152     O      0.571900000000     0.632600000000     0.000000000000     0          
C153     C      0.644700000000     0.705800000000     0.000000000000     0          
H154     H      0.611400000000     0.714900000000     0.000000000000     0          
C155     C      0.679500000000     0.742000000000     0.000000000000     0          
H156     H      0.669500000000     0.775100000000     0.000000000000     0          
O157     O      0.071900000000     0.867400000000     0.000000000000     0          
C158     C      0.144700000000     0.794200000000     0.000000000000     0          
H159     H      0.111400000000     0.785100000000     0.000000000000     0          
C160     C      0.179500000000     0.758000000000     0.000000000000     0          
H161     H      0.169500000000     0.724900000000     0.000000000000     0          
O162     O      0.071900000000     0.367400000000     0.500000000000     0          
C163     C      0.144700000000     0.294200000000     0.500000000000     0          
H164     H      0.111400000000     0.285100000000     0.500000000000     0          
C165     C      0.179500000000     0.258000000000     0.500000000000     0          
H166     H      0.169500000000     0.224900000000     0.500000000000     0          
O167     O      0.571900000000     0.867400000000     0.500000000000     0          
C168     C      0.644700000000     0.794200000000     0.500000000000     0          
H169     H      0.611400000000     0.785100000000     0.500000000000     0          
C170     C      0.679500000000     0.758000000000     0.500000000000     0          
H171     H      0.669500000000     0.724900000000     0.500000000000     0          
O172     O      0.571900000000     0.367400000000     0.000000000000     0          
C173     C      0.644700000000     0.294200000000     0.000000000000     0          
H174     H      0.611400000000     0.285100000000     0.000000000000     0          
C175     C      0.679500000000     0.258000000000     0.000000000000     0          
H176     H      0.669500000000     0.224900000000     0.000000000000     0          
O177     O      0.928100000000     0.867400000000     0.000000000000     0          
C178     C      0.855300000000     0.794200000000     0.000000000000     0          
H179     H      0.888600000000     0.785100000000     0.000000000000     0          
C180     C      0.820500000000     0.758000000000     0.000000000000     0          
H181     H      0.830500000000     0.724900000000     0.000000000000     0          
O182     O      0.928100000000     0.367400000000     0.500000000000     0          
C183     C      0.855300000000     0.294200000000     0.500000000000     0          
H184     H      0.888600000000     0.285100000000     0.500000000000     0          
C185     C      0.820500000000     0.258000000000     0.500000000000     0          
H186     H      0.830500000000     0.224900000000     0.500000000000     0          
O187     O      0.428100000000     0.867400000000     0.500000000000     0          
C188     C      0.355300000000     0.794200000000     0.500000000000     0          
H189     H      0.388600000000     0.785100000000     0.500000000000     0          
C190     C      0.320500000000     0.758000000000     0.500000000000     0          
H191     H      0.330500000000     0.724900000000     0.500000000000     0          
O192     O      0.428100000000     0.367400000000     0.000000000000     0          
C193     C      0.355300000000     0.294200000000     0.000000000000     0          
H194     H      0.388600000000     0.285100000000     0.000000000000     0          
C195     C      0.320500000000     0.258000000000     0.000000000000     0          
H196     H      0.330500000000     0.224900000000     0.000000000000     0          
O197     O      0.928100000000     0.132600000000     0.000000000000     0          
C198     C      0.855300000000     0.205800000000     0.000000000000     0          
H199     H      0.888600000000     0.214900000000     0.000000000000     0          
C200     C      0.820500000000     0.242000000000     0.000000000000     0          
H201     H      0.830500000000     0.275100000000     0.000000000000     0          
O202     O      0.928100000000     0.632600000000     0.500000000000     0          
C203     C      0.855300000000     0.705800000000     0.500000000000     0          
H204     H      0.888600000000     0.714900000000     0.500000000000     0          
C205     C      0.820500000000     0.742000000000     0.500000000000     0          
H206     H      0.830500000000     0.775100000000     0.500000000000     0          
O207     O      0.428100000000     0.132600000000     0.500000000000     0          
C208     C      0.355300000000     0.205800000000     0.500000000000     0          
H209     H      0.388600000000     0.214900000000     0.500000000000     0          
C210     C      0.320500000000     0.242000000000     0.500000000000     0          
H211     H      0.330500000000     0.275100000000     0.500000000000     0          
O212     O      0.428100000000     0.632600000000     0.000000000000     0          
C213     C      0.355300000000     0.705800000000     0.000000000000     0          
H214     H      0.388600000000     0.714900000000     0.000000000000     0          
C215     C      0.320500000000     0.742000000000     0.000000000000     0          
H216     H      0.330500000000     0.775100000000     0.000000000000     0          
O217     O      0.000000000000     0.071900000000     0.132600000000     0          
C218     C      0.000000000000     0.144700000000     0.205800000000     0          
H219     H      0.000000000000     0.111400000000     0.214900000000     0          
C220     C      0.000000000000     0.179500000000     0.242000000000     0          
H221     H      0.000000000000     0.169500000000     0.275100000000     0          
O222     O      0.000000000000     0.571900000000     0.632600000000     0          
C223     C      0.000000000000     0.644700000000     0.705800000000     0          
H224     H      0.000000000000     0.611400000000     0.714900000000     0          
C225     C      0.000000000000     0.679500000000     0.742000000000     0          
H226     H      0.000000000000     0.669500000000     0.775100000000     0          
O227     O      0.500000000000     0.071900000000     0.632600000000     0          
C228     C      0.500000000000     0.144700000000     0.705800000000     0          
H229     H      0.500000000000     0.111400000000     0.714900000000     0          
C230     C      0.500000000000     0.179500000000     0.742000000000     0          
H231     H      0.500000000000     0.169500000000     0.775100000000     0          
O232     O      0.500000000000     0.571900000000     0.132600000000     0          
C233     C      0.500000000000     0.644700000000     0.205800000000     0          
H234     H      0.500000000000     0.611400000000     0.214900000000     0          
C235     C      0.500000000000     0.679500000000     0.242000000000     0          
H236     H      0.500000000000     0.669500000000     0.275100000000     0          
O237     O      0.000000000000     0.071900000000     0.867400000000     0          
C238     C      0.000000000000     0.144700000000     0.794200000000     0          
H239     H      0.000000000000     0.111400000000     0.785100000000     0          
C240     C      0.000000000000     0.179500000000     0.758000000000     0          
H241     H      0.000000000000     0.169500000000     0.724900000000     0          
O242     O      0.000000000000     0.571900000000     0.367400000000     0          
C243     C      0.000000000000     0.644700000000     0.294200000000     0          
H244     H      0.000000000000     0.611400000000     0.285100000000     0          
C245     C      0.000000000000     0.679500000000     0.258000000000     0          
H246     H      0.000000000000     0.669500000000     0.224900000000     0          
O247     O      0.500000000000     0.071900000000     0.367400000000     0          
C248     C      0.500000000000     0.144700000000     0.294200000000     0          
H249     H      0.500000000000     0.111400000000     0.285100000000     0          
C250     C      0.500000000000     0.179500000000     0.258000000000     0          
H251     H      0.500000000000     0.169500000000     0.224900000000     0          
O252     O      0.500000000000     0.571900000000     0.867400000000     0          
C253     C      0.500000000000     0.644700000000     0.794200000000     0          
H254     H      0.500000000000     0.611400000000     0.785100000000     0          
C255     C      0.500000000000     0.679500000000     0.758000000000     0          
H256     H      0.500000000000     0.669500000000     0.724900000000     0          
O257     O      0.000000000000     0.928100000000     0.867400000000     0          
C258     C      0.000000000000     0.855300000000     0.794200000000     0          
H259     H      0.000000000000     0.888600000000     0.785100000000     0          
C260     C      0.000000000000     0.820500000000     0.758000000000     0          
H261     H      0.000000000000     0.830500000000     0.724900000000     0          
O262     O      0.000000000000     0.428100000000     0.367400000000     0          
C263     C      0.000000000000     0.355300000000     0.294200000000     0          
H264     H      0.000000000000     0.388600000000     0.285100000000     0          
C265     C      0.000000000000     0.320500000000     0.258000000000     0          
H266     H      0.000000000000     0.330500000000     0.224900000000     0          
O267     O      0.500000000000     0.928100000000     0.367400000000     0          
C268     C      0.500000000000     0.855300000000     0.294200000000     0          
H269     H      0.500000000000     0.888600000000     0.285100000000     0          
C270     C      0.500000000000     0.820500000000     0.258000000000     0          
H271     H      0.500000000000     0.830500000000     0.224900000000     0          
O272     O      0.500000000000     0.428100000000     0.867400000000     0          
C273     C      0.500000000000     0.355300000000     0.794200000000     0          
H274     H      0.500000000000     0.388600000000     0.785100000000     0          
C275     C      0.500000000000     0.320500000000     0.758000000000     0          
H276     H      0.500000000000     0.330500000000     0.724900000000     0          
O277     O      0.000000000000     0.928100000000     0.132600000000     0          
C278     C      0.000000000000     0.855300000000     0.205800000000     0          
H279     H      0.000000000000     0.888600000000     0.214900000000     0          
C280     C      0.000000000000     0.820500000000     0.242000000000     0          
H281     H      0.000000000000     0.830500000000     0.275100000000     0          
O282     O      0.000000000000     0.428100000000     0.632600000000     0          
C283     C      0.000000000000     0.355300000000     0.705800000000     0          
H284     H      0.000000000000     0.388600000000     0.714900000000     0          
C285     C      0.000000000000     0.320500000000     0.742000000000     0          
H286     H      0.000000000000     0.330500000000     0.775100000000     0          
O287     O      0.500000000000     0.928100000000     0.632600000000     0          
C288     C      0.500000000000     0.855300000000     0.705800000000     0          
H289     H      0.500000000000     0.888600000000     0.714900000000     0          
C290     C      0.500000000000     0.820500000000     0.742000000000     0          
H291     H      0.500000000000     0.830500000000     0.775100000000     0          
O292     O      0.500000000000     0.428100000000     0.132600000000     0          
C293     C      0.500000000000     0.355300000000     0.205800000000     0          
H294     H      0.500000000000     0.388600000000     0.214900000000     0          
C295     C      0.500000000000     0.320500000000     0.242000000000     0          
H296     H      0.500000000000     0.330500000000     0.275100000000     0          
O297     O      0.000000000000     0.132600000000     0.928100000000     0          
C298     C      0.000000000000     0.205800000000     0.855300000000     0          
H299     H      0.000000000000     0.214900000000     0.888600000000     0          
C300     C      0.000000000000     0.242000000000     0.820500000000     0          
H301     H      0.000000000000     0.275100000000     0.830500000000     0          
O302     O      0.000000000000     0.632600000000     0.428100000000     0          
C303     C      0.000000000000     0.705800000000     0.355300000000     0          
H304     H      0.000000000000     0.714900000000     0.388600000000     0          
C305     C      0.000000000000     0.742000000000     0.320500000000     0          
H306     H      0.000000000000     0.775100000000     0.330500000000     0          
O307     O      0.500000000000     0.132600000000     0.428100000000     0          
C308     C      0.500000000000     0.205800000000     0.355300000000     0          
H309     H      0.500000000000     0.214900000000     0.388600000000     0          
C310     C      0.500000000000     0.242000000000     0.320500000000     0          
H311     H      0.500000000000     0.275100000000     0.330500000000     0          
O312     O      0.500000000000     0.632600000000     0.928100000000     0          
C313     C      0.500000000000     0.705800000000     0.855300000000     0          
H314     H      0.500000000000     0.714900000000     0.888600000000     0          
C315     C      0.500000000000     0.742000000000     0.820500000000     0          
H316     H      0.500000000000     0.775100000000     0.830500000000     0          
O317     O      0.000000000000     0.867400000000     0.928100000000     0          
C318     C      0.000000000000     0.794200000000     0.855300000000     0          
H319     H      0.000000000000     0.785100000000     0.888600000000     0          
C320     C      0.000000000000     0.758000000000     0.820500000000     0          
H321     H      0.000000000000     0.724900000000     0.830500000000     0          
O322     O      0.000000000000     0.367400000000     0.428100000000     0          
C323     C      0.000000000000     0.294200000000     0.355300000000     0          
H324     H      0.000000000000     0.285100000000     0.388600000000     0          
C325     C      0.000000000000     0.258000000000     0.320500000000     0          
H326     H      0.000000000000     0.224900000000     0.330500000000     0          
O327     O      0.500000000000     0.867400000000     0.428100000000     0          
C328     C      0.500000000000     0.794200000000     0.355300000000     0          
H329     H      0.500000000000     0.785100000000     0.388600000000     0          
C330     C      0.500000000000     0.758000000000     0.320500000000     0          
H331     H      0.500000000000     0.724900000000     0.330500000000     0          
O332     O      0.500000000000     0.367400000000     0.928100000000     0          
C333     C      0.500000000000     0.294200000000     0.855300000000     0          
H334     H      0.500000000000     0.285100000000     0.888600000000     0          
C335     C      0.500000000000     0.258000000000     0.820500000000     0          
H336     H      0.500000000000     0.224900000000     0.830500000000     0          
O337     O      0.000000000000     0.867400000000     0.071900000000     0          
C338     C      0.000000000000     0.794200000000     0.144700000000     0          
H339     H      0.000000000000     0.785100000000     0.111400000000     0          
C340     C      0.000000000000     0.758000000000     0.179500000000     0          
H341     H      0.000000000000     0.724900000000     0.169500000000     0          
O342     O      0.000000000000     0.367400000000     0.571900000000     0          
C343     C      0.000000000000     0.294200000000     0.644700000000     0          
H344     H      0.000000000000     0.285100000000     0.611400000000     0          
C345     C      0.000000000000     0.258000000000     0.679500000000     0          
H346     H      0.000000000000     0.224900000000     0.669500000000     0          
O347     O      0.500000000000     0.867400000000     0.571900000000     0          
C348     C      0.500000000000     0.794200000000     0.644700000000     0          
H349     H      0.500000000000     0.785100000000     0.611400000000     0          
C350     C      0.500000000000     0.758000000000     0.679500000000     0          
H351     H      0.500000000000     0.724900000000     0.669500000000     0          
O352     O      0.500000000000     0.367400000000     0.071900000000     0          
C353     C      0.500000000000     0.294200000000     0.144700000000     0          
H354     H      0.500000000000     0.285100000000     0.111400000000     0          
C355     C      0.500000000000     0.258000000000     0.179500000000     0          
H356     H      0.500000000000     0.224900000000     0.169500000000     0          
O357     O      0.000000000000     0.132600000000     0.071900000000     0          
C358     C      0.000000000000     0.205800000000     0.144700000000     0          
H359     H      0.000000000000     0.214900000000     0.111400000000     0          
C360     C      0.000000000000     0.242000000000     0.179500000000     0          
H361     H      0.000000000000     0.275100000000     0.169500000000     0          
O362     O      0.000000000000     0.632600000000     0.571900000000     0          
C363     C      0.000000000000     0.705800000000     0.644700000000     0          
H364     H      0.000000000000     0.714900000000     0.611400000000     0          
C365     C      0.000000000000     0.742000000000     0.679500000000     0          
H366     H      0.000000000000     0.775100000000     0.669500000000     0          
O367     O      0.500000000000     0.132600000000     0.571900000000     0          
C368     C      0.500000000000     0.205800000000     0.644700000000     0          
H369     H      0.500000000000     0.214900000000     0.611400000000     0          
C370     C      0.500000000000     0.242000000000     0.679500000000     0          
H371     H      0.500000000000     0.275100000000     0.669500000000     0          
O372     O      0.500000000000     0.632600000000     0.071900000000     0          
C373     C      0.500000000000     0.705800000000     0.144700000000     0          
H374     H      0.500000000000     0.714900000000     0.111400000000     0          
C375     C      0.500000000000     0.742000000000     0.179500000000     0          
H376     H      0.500000000000     0.775100000000     0.169500000000     0          
O377     O      0.132600000000     0.071900000000     0.000000000000     0          
C378     C      0.205800000000     0.144700000000     0.000000000000     0          
H379     H      0.214900000000     0.111400000000     0.000000000000     0          
C380     C      0.242000000000     0.179500000000     0.000000000000     0          
H381     H      0.275100000000     0.169500000000     0.000000000000     0          
O382     O      0.132600000000     0.571900000000     0.500000000000     0          
C383     C      0.205800000000     0.644700000000     0.500000000000     0          
H384     H      0.214900000000     0.611400000000     0.500000000000     0          
C385     C      0.242000000000     0.679500000000     0.500000000000     0          
H386     H      0.275100000000     0.669500000000     0.500000000000     0          
O387     O      0.632600000000     0.071900000000     0.500000000000     0          
C388     C      0.705800000000     0.144700000000     0.500000000000     0          
H389     H      0.714900000000     0.111400000000     0.500000000000     0          
C390     C      0.742000000000     0.179500000000     0.500000000000     0          
H391     H      0.775100000000     0.169500000000     0.500000000000     0          
O392     O      0.632600000000     0.571900000000     0.000000000000     0          
C393     C      0.705800000000     0.644700000000     0.000000000000     0          
H394     H      0.714900000000     0.611400000000     0.000000000000     0          
C395     C      0.742000000000     0.679500000000     0.000000000000     0          
H396     H      0.775100000000     0.669500000000     0.000000000000     0          
O397     O      0.867400000000     0.071900000000     0.000000000000     0          
C398     C      0.794200000000     0.144700000000     0.000000000000     0          
H399     H      0.785100000000     0.111400000000     0.000000000000     0          
C400     C      0.758000000000     0.179500000000     0.000000000000     0          
H401     H      0.724900000000     0.169500000000     0.000000000000     0          
O402     O      0.867400000000     0.571900000000     0.500000000000     0          
C403     C      0.794200000000     0.644700000000     0.500000000000     0          
H404     H      0.785100000000     0.611400000000     0.500000000000     0          
C405     C      0.758000000000     0.679500000000     0.500000000000     0          
H406     H      0.724900000000     0.669500000000     0.500000000000     0          
O407     O      0.367400000000     0.071900000000     0.500000000000     0          
C408     C      0.294200000000     0.144700000000     0.500000000000     0          
H409     H      0.285100000000     0.111400000000     0.500000000000     0          
C410     C      0.258000000000     0.179500000000     0.500000000000     0          
H411     H      0.224900000000     0.169500000000     0.500000000000     0          
O412     O      0.367400000000     0.571900000000     0.000000000000     0          
C413     C      0.294200000000     0.644700000000     0.000000000000     0          
H414     H      0.285100000000     0.611400000000     0.000000000000     0          
C415     C      0.258000000000     0.679500000000     0.000000000000     0          
H416     H      0.224900000000     0.669500000000     0.000000000000     0          
O417     O      0.867400000000     0.928100000000     0.000000000000     0          
C418     C      0.794200000000     0.855300000000     0.000000000000     0          
H419     H      0.785100000000     0.888600000000     0.000000000000     0          
C420     C      0.758000000000     0.820500000000     0.000000000000     0          
H421     H      0.724900000000     0.830500000000     0.000000000000     0          
O422     O      0.867400000000     0.428100000000     0.500000000000     0          
C423     C      0.794200000000     0.355300000000     0.500000000000     0          
H424     H      0.785100000000     0.388600000000     0.500000000000     0          
C425     C      0.758000000000     0.320500000000     0.500000000000     0          
H426     H      0.724900000000     0.330500000000     0.500000000000     0          
O427     O      0.367400000000     0.928100000000     0.500000000000     0          
C428     C      0.294200000000     0.855300000000     0.500000000000     0          
H429     H      0.285100000000     0.888600000000     0.500000000000     0          
C430     C      0.258000000000     0.820500000000     0.500000000000     0          
H431     H      0.224900000000     0.830500000000     0.500000000000     0          
O432     O      0.367400000000     0.428100000000     0.000000000000     0          
C433     C      0.294200000000     0.355300000000     0.000000000000     0          
H434     H      0.285100000000     0.388600000000     0.000000000000     0          
C435     C      0.258000000000     0.320500000000     0.000000000000     0          
H436     H      0.224900000000     0.330500000000     0.000000000000     0          
O437     O      0.132600000000     0.928100000000     0.000000000000     0          
C438     C      0.205800000000     0.855300000000     0.000000000000     0          
H439     H      0.214900000000     0.888600000000     0.000000000000     0          
C440     C      0.242000000000     0.820500000000     0.000000000000     0          
H441     H      0.275100000000     0.830500000000     0.000000000000     0          
O442     O      0.132600000000     0.428100000000     0.500000000000     0          
C443     C      0.205800000000     0.355300000000     0.500000000000     0          
H444     H      0.214900000000     0.388600000000     0.500000000000     0          
C445     C      0.242000000000     0.320500000000     0.500000000000     0          
H446     H      0.275100000000     0.330500000000     0.500000000000     0          
O447     O      0.632600000000     0.928100000000     0.500000000000     0          
C448     C      0.705800000000     0.855300000000     0.500000000000     0          
H449     H      0.714900000000     0.888600000000     0.500000000000     0          
C450     C      0.742000000000     0.820500000000     0.500000000000     0          
H451     H      0.775100000000     0.830500000000     0.500000000000     0          
O452     O      0.632600000000     0.428100000000     0.000000000000     0          
C453     C      0.705800000000     0.355300000000     0.000000000000     0          
H454     H      0.714900000000     0.388600000000     0.000000000000     0          
C455     C      0.742000000000     0.320500000000     0.000000000000     0          
H456     H      0.775100000000     0.330500000000     0.000000000000     0          
O457     O      0.071900000000     0.000000000000     0.867400000000     0          
C458     C      0.144700000000     0.000000000000     0.794200000000     0          
H459     H      0.111400000000     0.000000000000     0.785100000000     0          
C460     C      0.179500000000     0.000000000000     0.758000000000     0          
H461     H      0.169500000000     0.000000000000     0.724900000000     0          
O462     O      0.071900000000     0.500000000000     0.367400000000     0          
C463     C      0.144700000000     0.500000000000     0.294200000000     0          
H464     H      0.111400000000     0.500000000000     0.285100000000     0          
C465     C      0.179500000000     0.500000000000     0.258000000000     0          
H466     H      0.169500000000     0.500000000000     0.224900000000     0          
O467     O      0.571900000000     0.000000000000     0.367400000000     0          
C468     C      0.644700000000     0.000000000000     0.294200000000     0          
H469     H      0.611400000000     0.000000000000     0.285100000000     0          
C470     C      0.679500000000     0.000000000000     0.258000000000     0          
H471     H      0.669500000000     0.000000000000     0.224900000000     0          
O472     O      0.571900000000     0.500000000000     0.867400000000     0          
C473     C      0.644700000000     0.500000000000     0.794200000000     0          
H474     H      0.611400000000     0.500000000000     0.785100000000     0          
C475     C      0.679500000000     0.500000000000     0.758000000000     0          
H476     H      0.669500000000     0.500000000000     0.724900000000     0          
O477     O      0.071900000000     0.000000000000     0.132600000000     0          
C478     C      0.144700000000     0.000000000000     0.205800000000     0          
H479     H      0.111400000000     0.000000000000     0.214900000000     0          
C480     C      0.179500000000     0.000000000000     0.242000000000     0          
H481     H      0.169500000000     0.000000000000     0.275100000000     0          
O482     O      0.071900000000     0.500000000000     0.632600000000     0          
C483     C      0.144700000000     0.500000000000     0.705800000000     0          
H484     H      0.111400000000     0.500000000000     0.714900000000     0          
C485     C      0.179500000000     0.500000000000     0.742000000000     0          
H486     H      0.169500000000     0.500000000000     0.775100000000     0          
O487     O      0.571900000000     0.000000000000     0.632600000000     0          
C488     C      0.644700000000     0.000000000000     0.705800000000     0          
H489     H      0.611400000000     0.000000000000     0.714900000000     0          
C490     C      0.679500000000     0.000000000000     0.742000000000     0          
H491     H      0.669500000000     0.000000000000     0.775100000000     0          
O492     O      0.571900000000     0.500000000000     0.132600000000     0          
C493     C      0.644700000000     0.500000000000     0.205800000000     0          
H494     H      0.611400000000     0.500000000000     0.214900000000     0          
C495     C      0.679500000000     0.500000000000     0.242000000000     0          
H496     H      0.669500000000     0.500000000000     0.275100000000     0          
O497     O      0.928100000000     0.000000000000     0.132600000000     0          
C498     C      0.855300000000     0.000000000000     0.205800000000     0          
H499     H      0.888600000000     0.000000000000     0.214900000000     0          
C500     C      0.820500000000     0.000000000000     0.242000000000     0          
H501     H      0.830500000000     0.000000000000     0.275100000000     0          
O502     O      0.928100000000     0.500000000000     0.632600000000     0          
C503     C      0.855300000000     0.500000000000     0.705800000000     0          
H504     H      0.888600000000     0.500000000000     0.714900000000     0          
C505     C      0.820500000000     0.500000000000     0.742000000000     0          
H506     H      0.830500000000     0.500000000000     0.775100000000     0          
O507     O      0.428100000000     0.000000000000     0.632600000000     0          
C508     C      0.355300000000     0.000000000000     0.705800000000     0          
H509     H      0.388600000000     0.000000000000     0.714900000000     0          
C510     C      0.320500000000     0.000000000000     0.742000000000     0          
H511     H      0.330500000000     0.000000000000     0.775100000000     0          
O512     O      0.428100000000     0.500000000000     0.132600000000     0          
C513     C      0.355300000000     0.500000000000     0.205800000000     0          
H514     H      0.388600000000     0.500000000000     0.214900000000     0          
C515     C      0.320500000000     0.500000000000     0.242000000000     0          
H516     H      0.330500000000     0.500000000000     0.275100000000     0          
O517     O      0.928100000000     0.000000000000     0.867400000000     0          
C518     C      0.855300000000     0.000000000000     0.794200000000     0          
H519     H      0.888600000000     0.000000000000     0.785100000000     0          
C520     C      0.820500000000     0.000000000000     0.758000000000     0          
H521     H      0.830500000000     0.000000000000     0.724900000000     0          
O522     O      0.928100000000     0.500000000000     0.367400000000     0          
C523     C      0.855300000000     0.500000000000     0.294200000000     0          
H524     H      0.888600000000     0.500000000000     0.285100000000     0          
C525     C      0.820500000000     0.500000000000     0.258000000000     0          
H526     H      0.830500000000     0.500000000000     0.224900000000     0          
O527     O      0.428100000000     0.000000000000     0.367400000000     0          
C528     C      0.355300000000     0.000000000000     0.294200000000     0          
H529     H      0.388600000000     0.000000000000     0.285100000000     0          
C530     C      0.320500000000     0.000000000000     0.258000000000     0          
H531     H      0.330500000000     0.000000000000     0.224900000000     0          
O532     O      0.428100000000     0.500000000000     0.867400000000     0          
C533     C      0.355300000000     0.500000000000     0.794200000000     0          
H534     H      0.388600000000     0.500000000000     0.785100000000     0          
C535     C      0.320500000000     0.500000000000     0.758000000000     0          
H536     H      0.330500000000     0.500000000000     0.724900000000     0          
C537     C      0.117200000000     0.000000000000     0.117200000000     0          
C538     C      0.156500000000     0.000000000000     0.156500000000     0          
C539     C      0.230700000000     0.000000000000     0.230700000000     0          
C540     C      0.117200000000     0.500000000000     0.617200000000     0          
C541     C      0.156500000000     0.500000000000     0.656500000000     0          
C542     C      0.230700000000     0.500000000000     0.730700000000     0          
C543     C      0.617200000000     0.000000000000     0.617200000000     0          
C544     C      0.656500000000     0.000000000000     0.656500000000     0          
C545     C      0.730700000000     0.000000000000     0.730700000000     0          
C546     C      0.617200000000     0.500000000000     0.117200000000     0          
C547     C      0.656500000000     0.500000000000     0.156500000000     0          
C548     C      0.730700000000     0.500000000000     0.230700000000     0          
C549     C      0.882800000000     0.000000000000     0.117200000000     0          
C550     C      0.843500000000     0.000000000000     0.156500000000     0          
C551     C      0.769300000000     0.000000000000     0.230700000000     0          
C552     C      0.882800000000     0.500000000000     0.617200000000     0          
C553     C      0.843500000000     0.500000000000     0.656500000000     0          
C554     C      0.769300000000     0.500000000000     0.730700000000     0          
C555     C      0.382800000000     0.000000000000     0.617200000000     0          
C556     C      0.343500000000     0.000000000000     0.656500000000     0          
C557     C      0.269300000000     0.000000000000     0.730700000000     0          
C558     C      0.382800000000     0.500000000000     0.117200000000     0          
C559     C      0.343500000000     0.500000000000     0.156500000000     0          
C560     C      0.269300000000     0.500000000000     0.230700000000     0          
C561     C      0.882800000000     0.000000000000     0.882800000000     0          
C562     C      0.843500000000     0.000000000000     0.843500000000     0          
C563     C      0.769300000000     0.000000000000     0.769300000000     0          
C564     C      0.882800000000     0.500000000000     0.382800000000     0          
C565     C      0.843500000000     0.500000000000     0.343500000000     0          
C566     C      0.769300000000     0.500000000000     0.269300000000     0          
C567     C      0.382800000000     0.000000000000     0.382800000000     0          
C568     C      0.343500000000     0.000000000000     0.343500000000     0          
C569     C      0.269300000000     0.000000000000     0.269300000000     0          
C570     C      0.382800000000     0.500000000000     0.882800000000     0          
C571     C      0.343500000000     0.500000000000     0.843500000000     0          
C572     C      0.269300000000     0.500000000000     0.769300000000     0          
C573     C      0.117200000000     0.000000000000     0.882800000000     0          
C574     C      0.156500000000     0.000000000000     0.843500000000     0          
C575     C      0.230700000000     0.000000000000     0.769300000000     0          
C576     C      0.117200000000     0.500000000000     0.382800000000     0          
C577     C      0.156500000000     0.500000000000     0.343500000000     0          
C578     C      0.230700000000     0.500000000000     0.269300000000     0          
C579     C      0.617200000000     0.000000000000     0.382800000000     0          
C580     C      0.656500000000     0.000000000000     0.343500000000     0          
C581     C      0.730700000000     0.000000000000     0.269300000000     0          
C582     C      0.617200000000     0.500000000000     0.882800000000     0          
C583     C      0.656500000000     0.500000000000     0.843500000000     0          
C584     C      0.730700000000     0.500000000000     0.769300000000     0          
C585     C      0.117200000000     0.117200000000     0.000000000000     0          
C586     C      0.156500000000     0.156500000000     0.000000000000     0          
C587     C      0.230700000000     0.230700000000     0.000000000000     0          
C588     C      0.117200000000     0.617200000000     0.500000000000     0          
C589     C      0.156500000000     0.656500000000     0.500000000000     0          
C590     C      0.230700000000     0.730700000000     0.500000000000     0          
C591     C      0.617200000000     0.117200000000     0.500000000000     0          
C592     C      0.656500000000     0.156500000000     0.500000000000     0          
C593     C      0.730700000000     0.230700000000     0.500000000000     0          
C594     C      0.617200000000     0.617200000000     0.000000000000     0          
C595     C      0.656500000000     0.656500000000     0.000000000000     0          
C596     C      0.730700000000     0.730700000000     0.000000000000     0          
C597     C      0.117200000000     0.882800000000     0.000000000000     0          
C598     C      0.156500000000     0.843500000000     0.000000000000     0          
C599     C      0.230700000000     0.769300000000     0.000000000000     0          
C600     C      0.117200000000     0.382800000000     0.500000000000     0          
C601     C      0.156500000000     0.343500000000     0.500000000000     0          
C602     C      0.230700000000     0.269300000000     0.500000000000     0          
C603     C      0.617200000000     0.882800000000     0.500000000000     0          
C604     C      0.656500000000     0.843500000000     0.500000000000     0          
C605     C      0.730700000000     0.769300000000     0.500000000000     0          
C606     C      0.617200000000     0.382800000000     0.000000000000     0          
C607     C      0.656500000000     0.343500000000     0.000000000000     0          
C608     C      0.730700000000     0.269300000000     0.000000000000     0          
C609     C      0.882800000000     0.882800000000     0.000000000000     0          
C610     C      0.843500000000     0.843500000000     0.000000000000     0          
C611     C      0.769300000000     0.769300000000     0.000000000000     0          
C612     C      0.882800000000     0.382800000000     0.500000000000     0          
C613     C      0.843500000000     0.343500000000     0.500000000000     0          
C614     C      0.769300000000     0.269300000000     0.500000000000     0          
C615     C      0.382800000000     0.882800000000     0.500000000000     0          
C616     C      0.343500000000     0.843500000000     0.500000000000     0          
C617     C      0.269300000000     0.769300000000     0.500000000000     0          
C618     C      0.382800000000     0.382800000000     0.000000000000     0          
C619     C      0.343500000000     0.343500000000     0.000000000000     0          
C620     C      0.269300000000     0.269300000000     0.000000000000     0          
C621     C      0.882800000000     0.117200000000     0.000000000000     0          
C622     C      0.843500000000     0.156500000000     0.000000000000     0          
C623     C      0.769300000000     0.230700000000     0.000000000000     0          
C624     C      0.882800000000     0.617200000000     0.500000000000     0          
C625     C      0.843500000000     0.656500000000     0.500000000000     0          
C626     C      0.769300000000     0.730700000000     0.500000000000     0          
C627     C      0.382800000000     0.117200000000     0.500000000000     0          
C628     C      0.343500000000     0.156500000000     0.500000000000     0          
C629     C      0.269300000000     0.230700000000     0.500000000000     0          
C630     C      0.382800000000     0.617200000000     0.000000000000     0          
C631     C      0.343500000000     0.656500000000     0.000000000000     0          
C632     C      0.269300000000     0.730700000000     0.000000000000     0          
C633     C      0.000000000000     0.117200000000     0.117200000000     0          
C634     C      0.000000000000     0.156500000000     0.156500000000     0          
C635     C      0.000000000000     0.230700000000     0.230700000000     0          
C636     C      0.000000000000     0.617200000000     0.617200000000     0          
C637     C      0.000000000000     0.656500000000     0.656500000000     0          
C638     C      0.000000000000     0.730700000000     0.730700000000     0          
C639     C      0.500000000000     0.117200000000     0.617200000000     0          
C640     C      0.500000000000     0.156500000000     0.656500000000     0          
C641     C      0.500000000000     0.230700000000     0.730700000000     0          
C642     C      0.500000000000     0.617200000000     0.117200000000     0          
C643     C      0.500000000000     0.656500000000     0.156500000000     0          
C644     C      0.500000000000     0.730700000000     0.230700000000     0          
C645     C      0.000000000000     0.117200000000     0.882800000000     0          
C646     C      0.000000000000     0.156500000000     0.843500000000     0          
C647     C      0.000000000000     0.230700000000     0.769300000000     0          
C648     C      0.000000000000     0.617200000000     0.382800000000     0          
C649     C      0.000000000000     0.656500000000     0.343500000000     0          
C650     C      0.000000000000     0.730700000000     0.269300000000     0          
C651     C      0.500000000000     0.117200000000     0.382800000000     0          
C652     C      0.500000000000     0.156500000000     0.343500000000     0          
C653     C      0.500000000000     0.230700000000     0.269300000000     0          
C654     C      0.500000000000     0.617200000000     0.882800000000     0          
C655     C      0.500000000000     0.656500000000     0.843500000000     0          
C656     C      0.500000000000     0.730700000000     0.769300000000     0          
C657     C      0.000000000000     0.882800000000     0.882800000000     0          
C658     C      0.000000000000     0.843500000000     0.843500000000     0          
C659     C      0.000000000000     0.769300000000     0.769300000000     0          
C660     C      0.000000000000     0.382800000000     0.382800000000     0          
C661     C      0.000000000000     0.343500000000     0.343500000000     0          
C662     C      0.000000000000     0.269300000000     0.269300000000     0          
C663     C      0.500000000000     0.882800000000     0.382800000000     0          
C664     C      0.500000000000     0.843500000000     0.343500000000     0          
C665     C      0.500000000000     0.769300000000     0.269300000000     0          
C666     C      0.500000000000     0.382800000000     0.882800000000     0          
C667     C      0.500000000000     0.343500000000     0.843500000000     0          
C668     C      0.500000000000     0.269300000000     0.769300000000     0          
C669     C      0.000000000000     0.882800000000     0.117200000000     0          
C670     C      0.000000000000     0.843500000000     0.156500000000     0          
C671     C      0.000000000000     0.769300000000     0.230700000000     0          
C672     C      0.000000000000     0.382800000000     0.617200000000     0          
C673     C      0.000000000000     0.343500000000     0.656500000000     0          
C674     C      0.000000000000     0.269300000000     0.730700000000     0          
C675     C      0.500000000000     0.882800000000     0.617200000000     0          
C676     C      0.500000000000     0.843500000000     0.656500000000     0          
C677     C      0.500000000000     0.769300000000     0.730700000000     0          
C678     C      0.500000000000     0.382800000000     0.117200000000     0          
C679     C      0.500000000000     0.343500000000     0.156500000000     0          
C680     C      0.500000000000     0.269300000000     0.230700000000     0          


