data_WIZMAV10

_audit_creation_method RASPA-1.0
_audit_creation_date 2020-11-2
_audit_author_name 'Rocio Bueno-Perez'

_cell_length_a    26.8132
_cell_length_b    26.8132
_cell_length_c    26.8132
_cell_angle_alpha 90
_cell_angle_beta  90
_cell_angle_gamma 90
_cell_volume      19277.3

_symmetry_cell_setting          triclinic
_symmetry_space_group_name_Hall 'P 1'
_symmetry_space_group_name_H-M  'P 1'
_symmetry_Int_Tables_number     1

_symmetry_equiv_pos_as_xyz 'x,y,z'

loop_
_atom_site_label
_atom_site_type_symbol
_atom_site_fract_x
_atom_site_fract_y
_atom_site_fract_z
_atom_site_charge
Zr1      Zr     0.500000000000     0.592340000000     0.500000000000     0          
Zr2      Zr     0.500000000000     0.092340000000     0.000000000000     0          
Zr3      Zr     0.000000000000     0.592340000000     0.000000000000     0          
Zr4      Zr     0.000000000000     0.092340000000     0.500000000000     0          
Zr5      Zr     0.500000000000     0.407660000000     0.500000000000     0          
Zr6      Zr     0.500000000000     0.907660000000     0.000000000000     0          
Zr7      Zr     0.000000000000     0.407660000000     0.000000000000     0          
Zr8      Zr     0.000000000000     0.907660000000     0.500000000000     0          
Zr9      Zr     0.500000000000     0.500000000000     0.592340000000     0          
Zr10     Zr     0.500000000000     0.000000000000     0.092340000000     0          
Zr11     Zr     0.000000000000     0.500000000000     0.092340000000     0          
Zr12     Zr     0.000000000000     0.000000000000     0.592340000000     0          
Zr13     Zr     0.500000000000     0.500000000000     0.407660000000     0          
Zr14     Zr     0.500000000000     0.000000000000     0.907660000000     0          
Zr15     Zr     0.000000000000     0.500000000000     0.907660000000     0          
Zr16     Zr     0.000000000000     0.000000000000     0.407660000000     0          
Zr17     Zr     0.592340000000     0.500000000000     0.500000000000     0          
Zr18     Zr     0.592340000000     0.000000000000     0.000000000000     0          
Zr19     Zr     0.092340000000     0.500000000000     0.000000000000     0          
Zr20     Zr     0.092340000000     0.000000000000     0.500000000000     0          
Zr21     Zr     0.407660000000     0.500000000000     0.500000000000     0          
Zr22     Zr     0.407660000000     0.000000000000     0.000000000000     0          
Zr23     Zr     0.907660000000     0.500000000000     0.000000000000     0          
Zr24     Zr     0.907660000000     0.000000000000     0.500000000000     0          
C25      C      0.617800000000     0.617800000000     0.500000000000     0          
C26      C      0.656500000000     0.656500000000     0.500000000000     0          
C27      C      0.730380000000     0.730380000000     0.500000000000     0          
C28      C      0.617800000000     0.117800000000     0.000000000000     0          
C29      C      0.656500000000     0.156500000000     0.000000000000     0          
C30      C      0.730380000000     0.230380000000     0.000000000000     0          
C31      C      0.117800000000     0.617800000000     0.000000000000     0          
C32      C      0.156500000000     0.656500000000     0.000000000000     0          
C33      C      0.230380000000     0.730380000000     0.000000000000     0          
C34      C      0.117800000000     0.117800000000     0.500000000000     0          
C35      C      0.156500000000     0.156500000000     0.500000000000     0          
C36      C      0.230380000000     0.230380000000     0.500000000000     0          
C37      C      0.382200000000     0.382200000000     0.500000000000     0          
C38      C      0.343500000000     0.343500000000     0.500000000000     0          
C39      C      0.269620000000     0.269620000000     0.500000000000     0          
C40      C      0.382200000000     0.882200000000     0.000000000000     0          
C41      C      0.343500000000     0.843500000000     0.000000000000     0          
C42      C      0.269620000000     0.769620000000     0.000000000000     0          
C43      C      0.882200000000     0.382200000000     0.000000000000     0          
C44      C      0.843500000000     0.343500000000     0.000000000000     0          
C45      C      0.769620000000     0.269620000000     0.000000000000     0          
C46      C      0.882200000000     0.882200000000     0.500000000000     0          
C47      C      0.843500000000     0.843500000000     0.500000000000     0          
C48      C      0.769620000000     0.769620000000     0.500000000000     0          
C49      C      0.382200000000     0.617800000000     0.500000000000     0          
C50      C      0.343500000000     0.656500000000     0.500000000000     0          
C51      C      0.269620000000     0.730380000000     0.500000000000     0          
C52      C      0.382200000000     0.117800000000     0.000000000000     0          
C53      C      0.343500000000     0.156500000000     0.000000000000     0          
C54      C      0.269620000000     0.230380000000     0.000000000000     0          
C55      C      0.882200000000     0.617800000000     0.000000000000     0          
C56      C      0.843500000000     0.656500000000     0.000000000000     0          
C57      C      0.769620000000     0.730380000000     0.000000000000     0          
C58      C      0.882200000000     0.117800000000     0.500000000000     0          
C59      C      0.843500000000     0.156500000000     0.500000000000     0          
C60      C      0.769620000000     0.230380000000     0.500000000000     0          
C61      C      0.617800000000     0.382200000000     0.500000000000     0          
C62      C      0.656500000000     0.343500000000     0.500000000000     0          
C63      C      0.730380000000     0.269620000000     0.500000000000     0          
C64      C      0.617800000000     0.882200000000     0.000000000000     0          
C65      C      0.656500000000     0.843500000000     0.000000000000     0          
C66      C      0.730380000000     0.769620000000     0.000000000000     0          
C67      C      0.117800000000     0.382200000000     0.000000000000     0          
C68      C      0.156500000000     0.343500000000     0.000000000000     0          
C69      C      0.230380000000     0.269620000000     0.000000000000     0          
C70      C      0.117800000000     0.882200000000     0.500000000000     0          
C71      C      0.156500000000     0.843500000000     0.500000000000     0          
C72      C      0.230380000000     0.769620000000     0.500000000000     0          
C73      C      0.500000000000     0.617800000000     0.617800000000     0          
C74      C      0.500000000000     0.656500000000     0.656500000000     0          
C75      C      0.500000000000     0.730380000000     0.730380000000     0          
C76      C      0.500000000000     0.117800000000     0.117800000000     0          
C77      C      0.500000000000     0.156500000000     0.156500000000     0          
C78      C      0.500000000000     0.230380000000     0.230380000000     0          
C79      C      0.000000000000     0.617800000000     0.117800000000     0          
C80      C      0.000000000000     0.656500000000     0.156500000000     0          
C81      C      0.000000000000     0.730380000000     0.230380000000     0          
C82      C      0.000000000000     0.117800000000     0.617800000000     0          
C83      C      0.000000000000     0.156500000000     0.656500000000     0          
C84      C      0.000000000000     0.230380000000     0.730380000000     0          
C85      C      0.500000000000     0.382200000000     0.382200000000     0          
C86      C      0.500000000000     0.343500000000     0.343500000000     0          
C87      C      0.500000000000     0.269620000000     0.269620000000     0          
C88      C      0.500000000000     0.882200000000     0.882200000000     0          
C89      C      0.500000000000     0.843500000000     0.843500000000     0          
C90      C      0.500000000000     0.769620000000     0.769620000000     0          
C91      C      0.000000000000     0.382200000000     0.882200000000     0          
C92      C      0.000000000000     0.343500000000     0.843500000000     0          
C93      C      0.000000000000     0.269620000000     0.769620000000     0          
C94      C      0.000000000000     0.882200000000     0.382200000000     0          
C95      C      0.000000000000     0.843500000000     0.343500000000     0          
C96      C      0.000000000000     0.769620000000     0.269620000000     0          
C97      C      0.500000000000     0.382200000000     0.617800000000     0          
C98      C      0.500000000000     0.343500000000     0.656500000000     0          
C99      C      0.500000000000     0.269620000000     0.730380000000     0          
C100     C      0.500000000000     0.882200000000     0.117800000000     0          
C101     C      0.500000000000     0.843500000000     0.156500000000     0          
C102     C      0.500000000000     0.769620000000     0.230380000000     0          
C103     C      0.000000000000     0.382200000000     0.117800000000     0          
C104     C      0.000000000000     0.343500000000     0.156500000000     0          
C105     C      0.000000000000     0.269620000000     0.230380000000     0          
C106     C      0.000000000000     0.882200000000     0.617800000000     0          
C107     C      0.000000000000     0.843500000000     0.656500000000     0          
C108     C      0.000000000000     0.769620000000     0.730380000000     0          
C109     C      0.500000000000     0.617800000000     0.382200000000     0          
C110     C      0.500000000000     0.656500000000     0.343500000000     0          
C111     C      0.500000000000     0.730380000000     0.269620000000     0          
C112     C      0.500000000000     0.117800000000     0.882200000000     0          
C113     C      0.500000000000     0.156500000000     0.843500000000     0          
C114     C      0.500000000000     0.230380000000     0.769620000000     0          
C115     C      0.000000000000     0.617800000000     0.882200000000     0          
C116     C      0.000000000000     0.656500000000     0.843500000000     0          
C117     C      0.000000000000     0.730380000000     0.769620000000     0          
C118     C      0.000000000000     0.117800000000     0.382200000000     0          
C119     C      0.000000000000     0.156500000000     0.343500000000     0          
C120     C      0.000000000000     0.230380000000     0.269620000000     0          
C121     C      0.617800000000     0.500000000000     0.617800000000     0          
C122     C      0.656500000000     0.500000000000     0.656500000000     0          
C123     C      0.730380000000     0.500000000000     0.730380000000     0          
C124     C      0.617800000000     0.000000000000     0.117800000000     0          
C125     C      0.656500000000     0.000000000000     0.156500000000     0          
C126     C      0.730380000000     0.000000000000     0.230380000000     0          
C127     C      0.117800000000     0.500000000000     0.117800000000     0          
C128     C      0.156500000000     0.500000000000     0.156500000000     0          
C129     C      0.230380000000     0.500000000000     0.230380000000     0          
C130     C      0.117800000000     0.000000000000     0.617800000000     0          
C131     C      0.156500000000     0.000000000000     0.656500000000     0          
C132     C      0.230380000000     0.000000000000     0.730380000000     0          
C133     C      0.382200000000     0.500000000000     0.382200000000     0          
C134     C      0.343500000000     0.500000000000     0.343500000000     0          
C135     C      0.269620000000     0.500000000000     0.269620000000     0          
C136     C      0.382200000000     0.000000000000     0.882200000000     0          
C137     C      0.343500000000     0.000000000000     0.843500000000     0          
C138     C      0.269620000000     0.000000000000     0.769620000000     0          
C139     C      0.882200000000     0.500000000000     0.882200000000     0          
C140     C      0.843500000000     0.500000000000     0.843500000000     0          
C141     C      0.769620000000     0.500000000000     0.769620000000     0          
C142     C      0.882200000000     0.000000000000     0.382200000000     0          
C143     C      0.843500000000     0.000000000000     0.343500000000     0          
C144     C      0.769620000000     0.000000000000     0.269620000000     0          
C145     C      0.617800000000     0.500000000000     0.382200000000     0          
C146     C      0.656500000000     0.500000000000     0.343500000000     0          
C147     C      0.730380000000     0.500000000000     0.269620000000     0          
C148     C      0.617800000000     0.000000000000     0.882200000000     0          
C149     C      0.656500000000     0.000000000000     0.843500000000     0          
C150     C      0.730380000000     0.000000000000     0.769620000000     0          
C151     C      0.117800000000     0.500000000000     0.882200000000     0          
C152     C      0.156500000000     0.500000000000     0.843500000000     0          
C153     C      0.230380000000     0.500000000000     0.769620000000     0          
C154     C      0.117800000000     0.000000000000     0.382200000000     0          
C155     C      0.156500000000     0.000000000000     0.343500000000     0          
C156     C      0.230380000000     0.000000000000     0.269620000000     0          
C157     C      0.382200000000     0.500000000000     0.617800000000     0          
C158     C      0.343500000000     0.500000000000     0.656500000000     0          
C159     C      0.269620000000     0.500000000000     0.730380000000     0          
C160     C      0.382200000000     0.000000000000     0.117800000000     0          
C161     C      0.343500000000     0.000000000000     0.156500000000     0          
C162     C      0.269620000000     0.000000000000     0.230380000000     0          
C163     C      0.882200000000     0.500000000000     0.117800000000     0          
C164     C      0.843500000000     0.500000000000     0.156500000000     0          
C165     C      0.769620000000     0.500000000000     0.230380000000     0          
C166     C      0.882200000000     0.000000000000     0.617800000000     0          
C167     C      0.843500000000     0.000000000000     0.656500000000     0          
C168     C      0.769620000000     0.000000000000     0.730380000000     0          
O169     O      0.572700000000     0.632900000000     0.500000000000     0          
C170     C      0.644700000000     0.705500000000     0.500000000000     0          
C171     C      0.680900000000     0.742100000000     0.500000000000     0          
H172     H      0.610600000000     0.715000000000     0.500000000000     0          
H173     H      0.671200000000     0.776100000000     0.500000000000     0          
O174     O      0.572700000000     0.132900000000     0.000000000000     0          
C175     C      0.644700000000     0.205500000000     0.000000000000     0          
C176     C      0.680900000000     0.242100000000     0.000000000000     0          
H177     H      0.610600000000     0.215000000000     0.000000000000     0          
H178     H      0.671200000000     0.276100000000     0.000000000000     0          
O179     O      0.072700000000     0.632900000000     0.000000000000     0          
C180     C      0.144700000000     0.705500000000     0.000000000000     0          
C181     C      0.180900000000     0.742100000000     0.000000000000     0          
H182     H      0.110600000000     0.715000000000     0.000000000000     0          
H183     H      0.171200000000     0.776100000000     0.000000000000     0          
O184     O      0.072700000000     0.132900000000     0.500000000000     0          
C185     C      0.144700000000     0.205500000000     0.500000000000     0          
C186     C      0.180900000000     0.242100000000     0.500000000000     0          
H187     H      0.110600000000     0.215000000000     0.500000000000     0          
H188     H      0.171200000000     0.276100000000     0.500000000000     0          
O189     O      0.427300000000     0.367100000000     0.500000000000     0          
C190     C      0.355300000000     0.294500000000     0.500000000000     0          
C191     C      0.319100000000     0.257900000000     0.500000000000     0          
H192     H      0.389400000000     0.285000000000     0.500000000000     0          
H193     H      0.328800000000     0.223900000000     0.500000000000     0          
O194     O      0.427300000000     0.867100000000     0.000000000000     0          
C195     C      0.355300000000     0.794500000000     0.000000000000     0          
C196     C      0.319100000000     0.757900000000     0.000000000000     0          
H197     H      0.389400000000     0.785000000000     0.000000000000     0          
H198     H      0.328800000000     0.723900000000     0.000000000000     0          
O199     O      0.927300000000     0.367100000000     0.000000000000     0          
C200     C      0.855300000000     0.294500000000     0.000000000000     0          
C201     C      0.819100000000     0.257900000000     0.000000000000     0          
H202     H      0.889400000000     0.285000000000     0.000000000000     0          
H203     H      0.828800000000     0.223900000000     0.000000000000     0          
O204     O      0.927300000000     0.867100000000     0.500000000000     0          
C205     C      0.855300000000     0.794500000000     0.500000000000     0          
C206     C      0.819100000000     0.757900000000     0.500000000000     0          
H207     H      0.889400000000     0.785000000000     0.500000000000     0          
H208     H      0.828800000000     0.723900000000     0.500000000000     0          
O209     O      0.427300000000     0.632900000000     0.500000000000     0          
C210     C      0.355300000000     0.705500000000     0.500000000000     0          
C211     C      0.319100000000     0.742100000000     0.500000000000     0          
H212     H      0.389400000000     0.715000000000     0.500000000000     0          
H213     H      0.328800000000     0.776100000000     0.500000000000     0          
O214     O      0.427300000000     0.132900000000     0.000000000000     0          
C215     C      0.355300000000     0.205500000000     0.000000000000     0          
C216     C      0.319100000000     0.242100000000     0.000000000000     0          
H217     H      0.389400000000     0.215000000000     0.000000000000     0          
H218     H      0.328800000000     0.276100000000     0.000000000000     0          
O219     O      0.927300000000     0.632900000000     0.000000000000     0          
C220     C      0.855300000000     0.705500000000     0.000000000000     0          
C221     C      0.819100000000     0.742100000000     0.000000000000     0          
H222     H      0.889400000000     0.715000000000     0.000000000000     0          
H223     H      0.828800000000     0.776100000000     0.000000000000     0          
O224     O      0.927300000000     0.132900000000     0.500000000000     0          
C225     C      0.855300000000     0.205500000000     0.500000000000     0          
C226     C      0.819100000000     0.242100000000     0.500000000000     0          
H227     H      0.889400000000     0.215000000000     0.500000000000     0          
H228     H      0.828800000000     0.276100000000     0.500000000000     0          
O229     O      0.572700000000     0.367100000000     0.500000000000     0          
C230     C      0.644700000000     0.294500000000     0.500000000000     0          
C231     C      0.680900000000     0.257900000000     0.500000000000     0          
H232     H      0.610600000000     0.285000000000     0.500000000000     0          
H233     H      0.671200000000     0.223900000000     0.500000000000     0          
O234     O      0.572700000000     0.867100000000     0.000000000000     0          
C235     C      0.644700000000     0.794500000000     0.000000000000     0          
C236     C      0.680900000000     0.757900000000     0.000000000000     0          
H237     H      0.610600000000     0.785000000000     0.000000000000     0          
H238     H      0.671200000000     0.723900000000     0.000000000000     0          
O239     O      0.072700000000     0.367100000000     0.000000000000     0          
C240     C      0.144700000000     0.294500000000     0.000000000000     0          
C241     C      0.180900000000     0.257900000000     0.000000000000     0          
H242     H      0.110600000000     0.285000000000     0.000000000000     0          
H243     H      0.171200000000     0.223900000000     0.000000000000     0          
O244     O      0.072700000000     0.867100000000     0.500000000000     0          
C245     C      0.144700000000     0.794500000000     0.500000000000     0          
C246     C      0.180900000000     0.757900000000     0.500000000000     0          
H247     H      0.110600000000     0.785000000000     0.500000000000     0          
H248     H      0.171200000000     0.723900000000     0.500000000000     0          
O249     O      0.500000000000     0.572700000000     0.632900000000     0          
C250     C      0.500000000000     0.644700000000     0.705500000000     0          
C251     C      0.500000000000     0.680900000000     0.742100000000     0          
H252     H      0.500000000000     0.610600000000     0.715000000000     0          
H253     H      0.500000000000     0.671200000000     0.776100000000     0          
O254     O      0.500000000000     0.072700000000     0.132900000000     0          
C255     C      0.500000000000     0.144700000000     0.205500000000     0          
C256     C      0.500000000000     0.180900000000     0.242100000000     0          
H257     H      0.500000000000     0.110600000000     0.215000000000     0          
H258     H      0.500000000000     0.171200000000     0.276100000000     0          
O259     O      0.000000000000     0.572700000000     0.132900000000     0          
C260     C      0.000000000000     0.644700000000     0.205500000000     0          
C261     C      0.000000000000     0.680900000000     0.242100000000     0          
H262     H      0.000000000000     0.610600000000     0.215000000000     0          
H263     H      0.000000000000     0.671200000000     0.276100000000     0          
O264     O      0.000000000000     0.072700000000     0.632900000000     0          
C265     C      0.000000000000     0.144700000000     0.705500000000     0          
C266     C      0.000000000000     0.180900000000     0.742100000000     0          
H267     H      0.000000000000     0.110600000000     0.715000000000     0          
H268     H      0.000000000000     0.171200000000     0.776100000000     0          
O269     O      0.500000000000     0.427300000000     0.367100000000     0          
C270     C      0.500000000000     0.355300000000     0.294500000000     0          
C271     C      0.500000000000     0.319100000000     0.257900000000     0          
H272     H      0.500000000000     0.389400000000     0.285000000000     0          
H273     H      0.500000000000     0.328800000000     0.223900000000     0          
O274     O      0.500000000000     0.927300000000     0.867100000000     0          
C275     C      0.500000000000     0.855300000000     0.794500000000     0          
C276     C      0.500000000000     0.819100000000     0.757900000000     0          
H277     H      0.500000000000     0.889400000000     0.785000000000     0          
H278     H      0.500000000000     0.828800000000     0.723900000000     0          
O279     O      0.000000000000     0.427300000000     0.867100000000     0          
C280     C      0.000000000000     0.355300000000     0.794500000000     0          
C281     C      0.000000000000     0.319100000000     0.757900000000     0          
H282     H      0.000000000000     0.389400000000     0.785000000000     0          
H283     H      0.000000000000     0.328800000000     0.723900000000     0          
O284     O      0.000000000000     0.927300000000     0.367100000000     0          
C285     C      0.000000000000     0.855300000000     0.294500000000     0          
C286     C      0.000000000000     0.819100000000     0.257900000000     0          
H287     H      0.000000000000     0.889400000000     0.285000000000     0          
H288     H      0.000000000000     0.828800000000     0.223900000000     0          
O289     O      0.500000000000     0.427300000000     0.632900000000     0          
C290     C      0.500000000000     0.355300000000     0.705500000000     0          
C291     C      0.500000000000     0.319100000000     0.742100000000     0          
H292     H      0.500000000000     0.389400000000     0.715000000000     0          
H293     H      0.500000000000     0.328800000000     0.776100000000     0          
O294     O      0.500000000000     0.927300000000     0.132900000000     0          
C295     C      0.500000000000     0.855300000000     0.205500000000     0          
C296     C      0.500000000000     0.819100000000     0.242100000000     0          
H297     H      0.500000000000     0.889400000000     0.215000000000     0          
H298     H      0.500000000000     0.828800000000     0.276100000000     0          
O299     O      0.000000000000     0.427300000000     0.132900000000     0          
C300     C      0.000000000000     0.355300000000     0.205500000000     0          
C301     C      0.000000000000     0.319100000000     0.242100000000     0          
H302     H      0.000000000000     0.389400000000     0.215000000000     0          
H303     H      0.000000000000     0.328800000000     0.276100000000     0          
O304     O      0.000000000000     0.927300000000     0.632900000000     0          
C305     C      0.000000000000     0.855300000000     0.705500000000     0          
C306     C      0.000000000000     0.819100000000     0.742100000000     0          
H307     H      0.000000000000     0.889400000000     0.715000000000     0          
H308     H      0.000000000000     0.828800000000     0.776100000000     0          
O309     O      0.500000000000     0.572700000000     0.367100000000     0          
C310     C      0.500000000000     0.644700000000     0.294500000000     0          
C311     C      0.500000000000     0.680900000000     0.257900000000     0          
H312     H      0.500000000000     0.610600000000     0.285000000000     0          
H313     H      0.500000000000     0.671200000000     0.223900000000     0          
O314     O      0.500000000000     0.072700000000     0.867100000000     0          
C315     C      0.500000000000     0.144700000000     0.794500000000     0          
C316     C      0.500000000000     0.180900000000     0.757900000000     0          
H317     H      0.500000000000     0.110600000000     0.785000000000     0          
H318     H      0.500000000000     0.171200000000     0.723900000000     0          
O319     O      0.000000000000     0.572700000000     0.867100000000     0          
C320     C      0.000000000000     0.644700000000     0.794500000000     0          
C321     C      0.000000000000     0.680900000000     0.757900000000     0          
H322     H      0.000000000000     0.610600000000     0.785000000000     0          
H323     H      0.000000000000     0.671200000000     0.723900000000     0          
O324     O      0.000000000000     0.072700000000     0.367100000000     0          
C325     C      0.000000000000     0.144700000000     0.294500000000     0          
C326     C      0.000000000000     0.180900000000     0.257900000000     0          
H327     H      0.000000000000     0.110600000000     0.285000000000     0          
H328     H      0.000000000000     0.171200000000     0.223900000000     0          
O329     O      0.632900000000     0.500000000000     0.572700000000     0          
C330     C      0.705500000000     0.500000000000     0.644700000000     0          
C331     C      0.742100000000     0.500000000000     0.680900000000     0          
H332     H      0.715000000000     0.500000000000     0.610600000000     0          
H333     H      0.776100000000     0.500000000000     0.671200000000     0          
O334     O      0.632900000000     0.000000000000     0.072700000000     0          
C335     C      0.705500000000     0.000000000000     0.144700000000     0          
C336     C      0.742100000000     0.000000000000     0.180900000000     0          
H337     H      0.715000000000     0.000000000000     0.110600000000     0          
H338     H      0.776100000000     0.000000000000     0.171200000000     0          
O339     O      0.132900000000     0.500000000000     0.072700000000     0          
C340     C      0.205500000000     0.500000000000     0.144700000000     0          
C341     C      0.242100000000     0.500000000000     0.180900000000     0          
H342     H      0.215000000000     0.500000000000     0.110600000000     0          
H343     H      0.276100000000     0.500000000000     0.171200000000     0          
O344     O      0.132900000000     0.000000000000     0.572700000000     0          
C345     C      0.205500000000     0.000000000000     0.644700000000     0          
C346     C      0.242100000000     0.000000000000     0.680900000000     0          
H347     H      0.215000000000     0.000000000000     0.610600000000     0          
H348     H      0.276100000000     0.000000000000     0.671200000000     0          
O349     O      0.367100000000     0.500000000000     0.427300000000     0          
C350     C      0.294500000000     0.500000000000     0.355300000000     0          
C351     C      0.257900000000     0.500000000000     0.319100000000     0          
H352     H      0.285000000000     0.500000000000     0.389400000000     0          
H353     H      0.223900000000     0.500000000000     0.328800000000     0          
O354     O      0.367100000000     0.000000000000     0.927300000000     0          
C355     C      0.294500000000     0.000000000000     0.855300000000     0          
C356     C      0.257900000000     0.000000000000     0.819100000000     0          
H357     H      0.285000000000     0.000000000000     0.889400000000     0          
H358     H      0.223900000000     0.000000000000     0.828800000000     0          
O359     O      0.867100000000     0.500000000000     0.927300000000     0          
C360     C      0.794500000000     0.500000000000     0.855300000000     0          
C361     C      0.757900000000     0.500000000000     0.819100000000     0          
H362     H      0.785000000000     0.500000000000     0.889400000000     0          
H363     H      0.723900000000     0.500000000000     0.828800000000     0          
O364     O      0.867100000000     0.000000000000     0.427300000000     0          
C365     C      0.794500000000     0.000000000000     0.355300000000     0          
C366     C      0.757900000000     0.000000000000     0.319100000000     0          
H367     H      0.785000000000     0.000000000000     0.389400000000     0          
H368     H      0.723900000000     0.000000000000     0.328800000000     0          
O369     O      0.632900000000     0.500000000000     0.427300000000     0          
C370     C      0.705500000000     0.500000000000     0.355300000000     0          
C371     C      0.742100000000     0.500000000000     0.319100000000     0          
H372     H      0.715000000000     0.500000000000     0.389400000000     0          
H373     H      0.776100000000     0.500000000000     0.328800000000     0          
O374     O      0.632900000000     0.000000000000     0.927300000000     0          
C375     C      0.705500000000     0.000000000000     0.855300000000     0          
C376     C      0.742100000000     0.000000000000     0.819100000000     0          
H377     H      0.715000000000     0.000000000000     0.889400000000     0          
H378     H      0.776100000000     0.000000000000     0.828800000000     0          
O379     O      0.132900000000     0.500000000000     0.927300000000     0          
C380     C      0.205500000000     0.500000000000     0.855300000000     0          
C381     C      0.242100000000     0.500000000000     0.819100000000     0          
H382     H      0.215000000000     0.500000000000     0.889400000000     0          
H383     H      0.276100000000     0.500000000000     0.828800000000     0          
O384     O      0.132900000000     0.000000000000     0.427300000000     0          
C385     C      0.205500000000     0.000000000000     0.355300000000     0          
C386     C      0.242100000000     0.000000000000     0.319100000000     0          
H387     H      0.215000000000     0.000000000000     0.389400000000     0          
H388     H      0.276100000000     0.000000000000     0.328800000000     0          
O389     O      0.367100000000     0.500000000000     0.572700000000     0          
C390     C      0.294500000000     0.500000000000     0.644700000000     0          
C391     C      0.257900000000     0.500000000000     0.680900000000     0          
H392     H      0.285000000000     0.500000000000     0.610600000000     0          
H393     H      0.223900000000     0.500000000000     0.671200000000     0          
O394     O      0.367100000000     0.000000000000     0.072700000000     0          
C395     C      0.294500000000     0.000000000000     0.144700000000     0          
C396     C      0.257900000000     0.000000000000     0.180900000000     0          
H397     H      0.285000000000     0.000000000000     0.110600000000     0          
H398     H      0.223900000000     0.000000000000     0.171200000000     0          
O399     O      0.867100000000     0.500000000000     0.072700000000     0          
C400     C      0.794500000000     0.500000000000     0.144700000000     0          
C401     C      0.757900000000     0.500000000000     0.180900000000     0          
H402     H      0.785000000000     0.500000000000     0.110600000000     0          
H403     H      0.723900000000     0.500000000000     0.171200000000     0          
O404     O      0.867100000000     0.000000000000     0.572700000000     0          
C405     C      0.794500000000     0.000000000000     0.644700000000     0          
C406     C      0.757900000000     0.000000000000     0.680900000000     0          
H407     H      0.785000000000     0.000000000000     0.610600000000     0          
H408     H      0.723900000000     0.000000000000     0.671200000000     0          
O409     O      0.632900000000     0.572700000000     0.500000000000     0          
C410     C      0.705500000000     0.644700000000     0.500000000000     0          
C411     C      0.742100000000     0.680900000000     0.500000000000     0          
H412     H      0.715000000000     0.610600000000     0.500000000000     0          
H413     H      0.776100000000     0.671200000000     0.500000000000     0          
O414     O      0.632900000000     0.072700000000     0.000000000000     0          
C415     C      0.705500000000     0.144700000000     0.000000000000     0          
C416     C      0.742100000000     0.180900000000     0.000000000000     0          
H417     H      0.715000000000     0.110600000000     0.000000000000     0          
H418     H      0.776100000000     0.171200000000     0.000000000000     0          
O419     O      0.132900000000     0.572700000000     0.000000000000     0          
C420     C      0.205500000000     0.644700000000     0.000000000000     0          
C421     C      0.242100000000     0.680900000000     0.000000000000     0          
H422     H      0.215000000000     0.610600000000     0.000000000000     0          
H423     H      0.276100000000     0.671200000000     0.000000000000     0          
O424     O      0.132900000000     0.072700000000     0.500000000000     0          
C425     C      0.205500000000     0.144700000000     0.500000000000     0          
C426     C      0.242100000000     0.180900000000     0.500000000000     0          
H427     H      0.215000000000     0.110600000000     0.500000000000     0          
H428     H      0.276100000000     0.171200000000     0.500000000000     0          
O429     O      0.367100000000     0.427300000000     0.500000000000     0          
C430     C      0.294500000000     0.355300000000     0.500000000000     0          
C431     C      0.257900000000     0.319100000000     0.500000000000     0          
H432     H      0.285000000000     0.389400000000     0.500000000000     0          
H433     H      0.223900000000     0.328800000000     0.500000000000     0          
O434     O      0.367100000000     0.927300000000     0.000000000000     0          
C435     C      0.294500000000     0.855300000000     0.000000000000     0          
C436     C      0.257900000000     0.819100000000     0.000000000000     0          
H437     H      0.285000000000     0.889400000000     0.000000000000     0          
H438     H      0.223900000000     0.828800000000     0.000000000000     0          
O439     O      0.867100000000     0.427300000000     0.000000000000     0          
C440     C      0.794500000000     0.355300000000     0.000000000000     0          
C441     C      0.757900000000     0.319100000000     0.000000000000     0          
H442     H      0.785000000000     0.389400000000     0.000000000000     0          
H443     H      0.723900000000     0.328800000000     0.000000000000     0          
O444     O      0.867100000000     0.927300000000     0.500000000000     0          
C445     C      0.794500000000     0.855300000000     0.500000000000     0          
C446     C      0.757900000000     0.819100000000     0.500000000000     0          
H447     H      0.785000000000     0.889400000000     0.500000000000     0          
H448     H      0.723900000000     0.828800000000     0.500000000000     0          
O449     O      0.632900000000     0.427300000000     0.500000000000     0          
C450     C      0.705500000000     0.355300000000     0.500000000000     0          
C451     C      0.742100000000     0.319100000000     0.500000000000     0          
H452     H      0.715000000000     0.389400000000     0.500000000000     0          
H453     H      0.776100000000     0.328800000000     0.500000000000     0          
O454     O      0.632900000000     0.927300000000     0.000000000000     0          
C455     C      0.705500000000     0.855300000000     0.000000000000     0          
C456     C      0.742100000000     0.819100000000     0.000000000000     0          
H457     H      0.715000000000     0.889400000000     0.000000000000     0          
H458     H      0.776100000000     0.828800000000     0.000000000000     0          
O459     O      0.132900000000     0.427300000000     0.000000000000     0          
C460     C      0.205500000000     0.355300000000     0.000000000000     0          
C461     C      0.242100000000     0.319100000000     0.000000000000     0          
H462     H      0.215000000000     0.389400000000     0.000000000000     0          
H463     H      0.276100000000     0.328800000000     0.000000000000     0          
O464     O      0.132900000000     0.927300000000     0.500000000000     0          
C465     C      0.205500000000     0.855300000000     0.500000000000     0          
C466     C      0.242100000000     0.819100000000     0.500000000000     0          
H467     H      0.215000000000     0.889400000000     0.500000000000     0          
H468     H      0.276100000000     0.828800000000     0.500000000000     0          
O469     O      0.367100000000     0.572700000000     0.500000000000     0          
C470     C      0.294500000000     0.644700000000     0.500000000000     0          
C471     C      0.257900000000     0.680900000000     0.500000000000     0          
H472     H      0.285000000000     0.610600000000     0.500000000000     0          
H473     H      0.223900000000     0.671200000000     0.500000000000     0          
O474     O      0.367100000000     0.072700000000     0.000000000000     0          
C475     C      0.294500000000     0.144700000000     0.000000000000     0          
C476     C      0.257900000000     0.180900000000     0.000000000000     0          
H477     H      0.285000000000     0.110600000000     0.000000000000     0          
H478     H      0.223900000000     0.171200000000     0.000000000000     0          
O479     O      0.867100000000     0.572700000000     0.000000000000     0          
C480     C      0.794500000000     0.644700000000     0.000000000000     0          
C481     C      0.757900000000     0.680900000000     0.000000000000     0          
H482     H      0.785000000000     0.610600000000     0.000000000000     0          
H483     H      0.723900000000     0.671200000000     0.000000000000     0          
O484     O      0.867100000000     0.072700000000     0.500000000000     0          
C485     C      0.794500000000     0.144700000000     0.500000000000     0          
C486     C      0.757900000000     0.180900000000     0.500000000000     0          
H487     H      0.785000000000     0.110600000000     0.500000000000     0          
H488     H      0.723900000000     0.171200000000     0.500000000000     0          
O489     O      0.572700000000     0.500000000000     0.367100000000     0          
C490     C      0.644700000000     0.500000000000     0.294500000000     0          
C491     C      0.680900000000     0.500000000000     0.257900000000     0          
H492     H      0.610600000000     0.500000000000     0.285000000000     0          
H493     H      0.671200000000     0.500000000000     0.223900000000     0          
O494     O      0.572700000000     0.000000000000     0.867100000000     0          
C495     C      0.644700000000     0.000000000000     0.794500000000     0          
C496     C      0.680900000000     0.000000000000     0.757900000000     0          
H497     H      0.610600000000     0.000000000000     0.785000000000     0          
H498     H      0.671200000000     0.000000000000     0.723900000000     0          
O499     O      0.072700000000     0.500000000000     0.867100000000     0          
C500     C      0.144700000000     0.500000000000     0.794500000000     0          
C501     C      0.180900000000     0.500000000000     0.757900000000     0          
H502     H      0.110600000000     0.500000000000     0.785000000000     0          
H503     H      0.171200000000     0.500000000000     0.723900000000     0          
O504     O      0.072700000000     0.000000000000     0.367100000000     0          
C505     C      0.144700000000     0.000000000000     0.294500000000     0          
C506     C      0.180900000000     0.000000000000     0.257900000000     0          
H507     H      0.110600000000     0.000000000000     0.285000000000     0          
H508     H      0.171200000000     0.000000000000     0.223900000000     0          
O509     O      0.427300000000     0.500000000000     0.632900000000     0          
C510     C      0.355300000000     0.500000000000     0.705500000000     0          
C511     C      0.319100000000     0.500000000000     0.742100000000     0          
H512     H      0.389400000000     0.500000000000     0.715000000000     0          
H513     H      0.328800000000     0.500000000000     0.776100000000     0          
O514     O      0.427300000000     0.000000000000     0.132900000000     0          
C515     C      0.355300000000     0.000000000000     0.205500000000     0          
C516     C      0.319100000000     0.000000000000     0.242100000000     0          
H517     H      0.389400000000     0.000000000000     0.215000000000     0          
H518     H      0.328800000000     0.000000000000     0.276100000000     0          
O519     O      0.927300000000     0.500000000000     0.132900000000     0          
C520     C      0.855300000000     0.500000000000     0.205500000000     0          
C521     C      0.819100000000     0.500000000000     0.242100000000     0          
H522     H      0.889400000000     0.500000000000     0.215000000000     0          
H523     H      0.828800000000     0.500000000000     0.276100000000     0          
O524     O      0.927300000000     0.000000000000     0.632900000000     0          
C525     C      0.855300000000     0.000000000000     0.705500000000     0          
C526     C      0.819100000000     0.000000000000     0.742100000000     0          
H527     H      0.889400000000     0.000000000000     0.715000000000     0          
H528     H      0.828800000000     0.000000000000     0.776100000000     0          
O529     O      0.427300000000     0.500000000000     0.367100000000     0          
C530     C      0.355300000000     0.500000000000     0.294500000000     0          
C531     C      0.319100000000     0.500000000000     0.257900000000     0          
H532     H      0.389400000000     0.500000000000     0.285000000000     0          
H533     H      0.328800000000     0.500000000000     0.223900000000     0          
O534     O      0.427300000000     0.000000000000     0.867100000000     0          
C535     C      0.355300000000     0.000000000000     0.794500000000     0          
C536     C      0.319100000000     0.000000000000     0.757900000000     0          
H537     H      0.389400000000     0.000000000000     0.785000000000     0          
H538     H      0.328800000000     0.000000000000     0.723900000000     0          
O539     O      0.927300000000     0.500000000000     0.867100000000     0          
C540     C      0.855300000000     0.500000000000     0.794500000000     0          
C541     C      0.819100000000     0.500000000000     0.757900000000     0          
H542     H      0.889400000000     0.500000000000     0.785000000000     0          
H543     H      0.828800000000     0.500000000000     0.723900000000     0          
O544     O      0.927300000000     0.000000000000     0.367100000000     0          
C545     C      0.855300000000     0.000000000000     0.294500000000     0          
C546     C      0.819100000000     0.000000000000     0.257900000000     0          
H547     H      0.889400000000     0.000000000000     0.285000000000     0          
H548     H      0.828800000000     0.000000000000     0.223900000000     0          
O549     O      0.572700000000     0.500000000000     0.632900000000     0          
C550     C      0.644700000000     0.500000000000     0.705500000000     0          
C551     C      0.680900000000     0.500000000000     0.742100000000     0          
H552     H      0.610600000000     0.500000000000     0.715000000000     0          
H553     H      0.671200000000     0.500000000000     0.776100000000     0          
O554     O      0.572700000000     0.000000000000     0.132900000000     0          
C555     C      0.644700000000     0.000000000000     0.205500000000     0          
C556     C      0.680900000000     0.000000000000     0.242100000000     0          
H557     H      0.610600000000     0.000000000000     0.215000000000     0          
H558     H      0.671200000000     0.000000000000     0.276100000000     0          
O559     O      0.072700000000     0.500000000000     0.132900000000     0          
C560     C      0.144700000000     0.500000000000     0.205500000000     0          
C561     C      0.180900000000     0.500000000000     0.242100000000     0          
H562     H      0.110600000000     0.500000000000     0.215000000000     0          
H563     H      0.171200000000     0.500000000000     0.276100000000     0          
O564     O      0.072700000000     0.000000000000     0.632900000000     0          
C565     C      0.144700000000     0.000000000000     0.705500000000     0          
C566     C      0.180900000000     0.000000000000     0.742100000000     0          
H567     H      0.110600000000     0.000000000000     0.715000000000     0          
H568     H      0.171200000000     0.000000000000     0.776100000000     0          
O569     O      0.500000000000     0.632900000000     0.427300000000     0          
C570     C      0.500000000000     0.705500000000     0.355300000000     0          
C571     C      0.500000000000     0.742100000000     0.319100000000     0          
H572     H      0.500000000000     0.715000000000     0.389400000000     0          
H573     H      0.500000000000     0.776100000000     0.328800000000     0          
O574     O      0.500000000000     0.132900000000     0.927300000000     0          
C575     C      0.500000000000     0.205500000000     0.855300000000     0          
C576     C      0.500000000000     0.242100000000     0.819100000000     0          
H577     H      0.500000000000     0.215000000000     0.889400000000     0          
H578     H      0.500000000000     0.276100000000     0.828800000000     0          
O579     O      0.000000000000     0.632900000000     0.927300000000     0          
C580     C      0.000000000000     0.705500000000     0.855300000000     0          
C581     C      0.000000000000     0.742100000000     0.819100000000     0          
H582     H      0.000000000000     0.715000000000     0.889400000000     0          
H583     H      0.000000000000     0.776100000000     0.828800000000     0          
O584     O      0.000000000000     0.132900000000     0.427300000000     0          
C585     C      0.000000000000     0.205500000000     0.355300000000     0          
C586     C      0.000000000000     0.242100000000     0.319100000000     0          
H587     H      0.000000000000     0.215000000000     0.389400000000     0          
H588     H      0.000000000000     0.276100000000     0.328800000000     0          
O589     O      0.500000000000     0.367100000000     0.572700000000     0          
C590     C      0.500000000000     0.294500000000     0.644700000000     0          
C591     C      0.500000000000     0.257900000000     0.680900000000     0          
H592     H      0.500000000000     0.285000000000     0.610600000000     0          
H593     H      0.500000000000     0.223900000000     0.671200000000     0          
O594     O      0.500000000000     0.867100000000     0.072700000000     0          
C595     C      0.500000000000     0.794500000000     0.144700000000     0          
C596     C      0.500000000000     0.757900000000     0.180900000000     0          
H597     H      0.500000000000     0.785000000000     0.110600000000     0          
H598     H      0.500000000000     0.723900000000     0.171200000000     0          
O599     O      0.000000000000     0.367100000000     0.072700000000     0          
C600     C      0.000000000000     0.294500000000     0.144700000000     0          
C601     C      0.000000000000     0.257900000000     0.180900000000     0          
H602     H      0.000000000000     0.285000000000     0.110600000000     0          
H603     H      0.000000000000     0.223900000000     0.171200000000     0          
O604     O      0.000000000000     0.867100000000     0.572700000000     0          
C605     C      0.000000000000     0.794500000000     0.644700000000     0          
C606     C      0.000000000000     0.757900000000     0.680900000000     0          
H607     H      0.000000000000     0.785000000000     0.610600000000     0          
H608     H      0.000000000000     0.723900000000     0.671200000000     0          
O609     O      0.500000000000     0.632900000000     0.572700000000     0          
C610     C      0.500000000000     0.705500000000     0.644700000000     0          
C611     C      0.500000000000     0.742100000000     0.680900000000     0          
H612     H      0.500000000000     0.715000000000     0.610600000000     0          
H613     H      0.500000000000     0.776100000000     0.671200000000     0          
O614     O      0.500000000000     0.132900000000     0.072700000000     0          
C615     C      0.500000000000     0.205500000000     0.144700000000     0          
C616     C      0.500000000000     0.242100000000     0.180900000000     0          
H617     H      0.500000000000     0.215000000000     0.110600000000     0          
H618     H      0.500000000000     0.276100000000     0.171200000000     0          
O619     O      0.000000000000     0.632900000000     0.072700000000     0          
C620     C      0.000000000000     0.705500000000     0.144700000000     0          
C621     C      0.000000000000     0.742100000000     0.180900000000     0          
H622     H      0.000000000000     0.715000000000     0.110600000000     0          
H623     H      0.000000000000     0.776100000000     0.171200000000     0          
O624     O      0.000000000000     0.132900000000     0.572700000000     0          
C625     C      0.000000000000     0.205500000000     0.644700000000     0          
C626     C      0.000000000000     0.242100000000     0.680900000000     0          
H627     H      0.000000000000     0.215000000000     0.610600000000     0          
H628     H      0.000000000000     0.276100000000     0.671200000000     0          
O629     O      0.500000000000     0.367100000000     0.427300000000     0          
C630     C      0.500000000000     0.294500000000     0.355300000000     0          
C631     C      0.500000000000     0.257900000000     0.319100000000     0          
H632     H      0.500000000000     0.285000000000     0.389400000000     0          
H633     H      0.500000000000     0.223900000000     0.328800000000     0          
O634     O      0.500000000000     0.867100000000     0.927300000000     0          
C635     C      0.500000000000     0.794500000000     0.855300000000     0          
C636     C      0.500000000000     0.757900000000     0.819100000000     0          
H637     H      0.500000000000     0.785000000000     0.889400000000     0          
H638     H      0.500000000000     0.723900000000     0.828800000000     0          
O639     O      0.000000000000     0.367100000000     0.927300000000     0          
C640     C      0.000000000000     0.294500000000     0.855300000000     0          
C641     C      0.000000000000     0.257900000000     0.819100000000     0          
H642     H      0.000000000000     0.285000000000     0.889400000000     0          
H643     H      0.000000000000     0.223900000000     0.828800000000     0          
O644     O      0.000000000000     0.867100000000     0.427300000000     0          
C645     C      0.000000000000     0.794500000000     0.355300000000     0          
C646     C      0.000000000000     0.757900000000     0.319100000000     0          
H647     H      0.000000000000     0.785000000000     0.389400000000     0          
H648     H      0.000000000000     0.723900000000     0.328800000000     0          
O649     O      0.453400000000     0.546600000000     0.546600000000     0          
O650     O      0.453400000000     0.046600000000     0.046600000000     0          
O651     O      0.953400000000     0.546600000000     0.046600000000     0          
O652     O      0.953400000000     0.046600000000     0.546600000000     0          
O653     O      0.546600000000     0.453400000000     0.546600000000     0          
O654     O      0.546600000000     0.953400000000     0.046600000000     0          
O655     O      0.046600000000     0.453400000000     0.046600000000     0          
O656     O      0.046600000000     0.953400000000     0.546600000000     0          
O657     O      0.546600000000     0.546600000000     0.453400000000     0          
O658     O      0.546600000000     0.046600000000     0.953400000000     0          
O659     O      0.046600000000     0.546600000000     0.953400000000     0          
O660     O      0.046600000000     0.046600000000     0.453400000000     0          
O661     O      0.453400000000     0.453400000000     0.453400000000     0          
O662     O      0.453400000000     0.953400000000     0.953400000000     0          
O663     O      0.953400000000     0.453400000000     0.953400000000     0          
O664     O      0.953400000000     0.953400000000     0.453400000000     0          
O665     O      0.546600000000     0.453400000000     0.453400000000     0          
O666     O      0.546600000000     0.953400000000     0.953400000000     0          
O667     O      0.046600000000     0.453400000000     0.953400000000     0          
O668     O      0.046600000000     0.953400000000     0.453400000000     0          
O669     O      0.453400000000     0.546600000000     0.453400000000     0          
O670     O      0.453400000000     0.046600000000     0.953400000000     0          
O671     O      0.953400000000     0.546600000000     0.953400000000     0          
O672     O      0.953400000000     0.046600000000     0.453400000000     0          
O673     O      0.546600000000     0.546600000000     0.546600000000     0          
O674     O      0.546600000000     0.046600000000     0.046600000000     0          
O675     O      0.046600000000     0.546600000000     0.046600000000     0          
O676     O      0.046600000000     0.046600000000     0.546600000000     0          
O677     O      0.453400000000     0.453400000000     0.546600000000     0          
O678     O      0.453400000000     0.953400000000     0.046600000000     0          
O679     O      0.953400000000     0.453400000000     0.046600000000     0          
O680     O      0.953400000000     0.953400000000     0.546600000000     0          


