
#######################################################################
#
#                 Cambridge Crystallographic Data Centre
#                                CCDC 
#
#######################################################################
#
# If this CIF has been generated from an entry in the Cambridge 
# Structural Database, then it will include bibliographic, chemical, 
# crystal, experimental, refinement or atomic coordinate data resulting 
# from the CCDC's data processing and validation procedures.
#
#######################################################################

data_WOCKAB
_chemical_formula_moiety         
'(C14 H4 K2 O30 Zr2 4-)n,2n(C6 H14 N2 2+),4n(H2 O1)'
_chemical_name_systematic        
'catena-(bis(1,4-Diazoniabicyclo(2.2.2)octane) (\m~4~-oxalato)-bis((\m~3~-oxalato)-(\m~2~-oxalato))-diaqua-bis(oxalato)-di-potassium-di-zirconium tetrahydrate)'
_symmetry_cell_setting           monoclinic
_symmetry_space_group_name_H-M   'P 21/c'
_symmetry_Int_Tables_number      14
_space_group_name_Hall           '-P 2ybc'
loop_
_symmetry_equiv_pos_as_xyz
x,y,z
-x,1/2+y,1/2-z
-x,-y,-z
x,1/2-y,1/2+z
_cell_length_a                   13.391
_cell_length_b                   10.3878
_cell_length_c                   14.7120
_cell_angle_alpha                90
_cell_angle_beta                 90.875
_cell_angle_gamma                90
_cell_volume                     2046.25
_exptl_crystal_colour            colorless
_exptl_crystal_description       block
_cell_formula_units_Z            2
loop_
_atom_site_label
_atom_site_type_symbol
_atom_site_fract_x
_atom_site_fract_y
_atom_site_fract_z
Zr1 Zr 0.67959 0.66684 0.52886
K1 K 0.55120 0.84516 0.31291
C1 C 0.7636 0.6305 0.3393
C2 C 0.8065 0.5190 0.3967
C3 C 0.8831 0.7378 0.6100
C4 C 0.8415 0.6333 0.6724
C5 C 0.5630 0.8521 0.6465
C6 C 0.5982 0.9363 0.5661
C7 C 0.4805 0.5461 0.4640
O1 O 0.71136 0.7094 0.38696
O2 O 0.7643 0.5085 0.47461
O3 O 0.7798 0.6397 0.25795
O4 O 0.8747 0.4518 0.36983
O5 O 0.8222 0.7661 0.54361
O6 O 0.7540 0.5947 0.65087
O7 O 0.9659 0.7827 0.6231
O8 O 0.8924 0.5906 0.7364
O9 O 0.5844 0.7324 0.63662
O10 O 0.6426 0.8701 0.50487
O11 O 0.5201 0.8987 0.71126
O12 O 0.5848 1.0526 0.56619
O13 O 0.53386 0.6440 0.44965
O14 O 0.39968 0.5169 0.42578
O15 O 0.3695 0.8833 0.2104
H5 H 0.3864 0.9569 0.1956
H6 H 0.3750 0.8480 0.1594
Zr1B Zr 0.32041 0.33316 0.47114
Zr1C Zr 0.67959 0.83316 0.02886
K1C K 0.55120 0.65484 0.81291
K1B K 0.44880 1.15484 0.68709
K1B_2 K 0.44880 0.15484 0.68709
K1A K 0.44880 0.34516 0.18709
C1B C 0.2364 0.3695 0.6607
C2B C 0.1935 0.4810 0.6033
C3B C 0.1169 0.2622 0.3900
C4B C 0.1585 0.3667 0.3276
C5C C 0.5630 0.6479 0.1465
C6C C 0.5982 0.5637 0.0661
C7B C 0.5195 0.4539 0.5360
O1B O 0.28864 0.2906 0.61304
O1C O 0.71136 0.7906 0.88696
O2B O 0.2357 0.4915 0.52539
O3B O 0.2202 0.3603 0.74205
O4B O 0.1253 0.5482 0.63017
O5B O 0.1778 0.2339 0.45639
O6B O 0.2460 0.4053 0.34913
O7B O 0.0341 0.2173 0.3769
O8B O 0.1076 0.4094 0.2636
O9C O 0.5844 0.7676 0.13662
O9B O 0.4156 0.2676 0.36338
O10C O 0.6426 0.6299 0.00487
O10B O 0.3574 0.1299 0.49513
O11C O 0.5201 0.6013 0.21126
O11B O 0.4799 1.1013 0.28874
O11A O 0.4799 0.3987 0.78874
O12C O 0.5848 0.4474 0.06619
O12B O 0.4152 0.9474 0.43381
O12A O 0.4152 0.5526 0.93381
O13B O 0.46614 0.3560 0.55035
O13C O 0.53386 0.8560 0.94965
O14B O 0.60032 0.4831 0.57422
O15C O 0.3695 0.6167 0.7104
H5C H 0.3864 0.5431 0.6956
H6C H 0.3750 0.6520 0.6594
loop_
_geom_bond_atom_site_label_1
_geom_bond_atom_site_label_2
_geom_bond_site_symmetry_1
_geom_bond_site_symmetry_2
Zr1 O1 1_555 1_555
K1 O1 1_555 1_555
C1 C2 1_555 1_555
C2 O2 1_555 1_555
C3 C4 1_555 1_555
C4 O6 1_555 1_555
C5 C6 1_555 1_555
C6 O10 1_555 1_555
C7 O13 1_555 1_555
O1 C1 1_555 1_555
O2 Zr1 1_555 1_555
O3 C1 1_555 1_555
O4 C2 1_555 1_555
O5 Zr1 1_555 1_555
O6 Zr1 1_555 1_555
O7 C3 1_555 1_555
O8 C4 1_555 1_555
O9 Zr1 1_555 1_555
O10 Zr1 1_555 1_555
O11 C5 1_555 1_555
O12 C6 1_555 1_555
O13 Zr1 1_555 1_555
O14 C7 1_555 1_555
O15 K1 1_555 1_555
H5 O15 1_555 1_555
H6 O15 1_555 1_555
Zr1B O14 1_555 1_555
Zr1C O9C 1_555 1_555
K1C O9 1_555 1_555
K1B O11 1_555 1_555
K1B_2 O1B 1_555 1_555
K1A O9B 1_555 1_555
C1B C2B 1_555 1_555
C2B O2B 1_555 1_555
C3B C4B 1_555 1_555
C4B O6B 1_555 1_555
C5C C6C 1_555 1_555
C6C O10C 1_555 1_555
C7B C7 1_555 1_555
O1B Zr1B 1_555 1_555
O1C K1C 1_555 1_555
O2B Zr1B 1_555 1_555
O3B C1B 1_555 1_555
O4B C2B 1_555 1_555
O5B Zr1B 1_555 1_555
O6B Zr1B 1_555 1_555
O7B C3B 1_555 1_555
O8B C4B 1_555 1_555
O9C K1 1_555 1_555
O9B Zr1B 1_555 1_555
O10C Zr1C 1_555 1_555
O10B Zr1B 1_555 1_555
O11C K1 1_555 1_555
O11B K1 1_555 1_555
O11A K1C 1_555 1_555
O12C K1A 1_555 1_555
O12B K1 1_555 1_555
O12A K1C 1_555 1_555
O13B Zr1B 1_555 1_555
O13C K1C 1_555 1_555
O14B Zr1 1_555 1_555
O15C K1C 1_555 1_555
H5C O15C 1_555 1_555
H6C O15C 1_555 1_555
K1 O13 1_555 1_555
C3 O5 1_555 1_555
C5 O9 1_555 1_555
O11 K1C 1_555 1_555
O12 K1B 1_555 1_555
K1B_2 O11A 1_555 1_555
K1B_2 O13B 1_555 1_555
K1A O11C 1_555 1_555
C1B O1B 1_555 1_555
C3B O5B 1_555 1_555
C5C O9C 1_555 1_555
C5C O11C 1_555 1_555
C6C O12C 1_555 1_555
C7B O13B 1_555 1_555
C7B O14B 1_555 1_555

#END
