data_WUHCEJ

_audit_creation_method RASPA-1.0
_audit_creation_date 2020-11-2
_audit_author_name 'Rocio Bueno-Perez'

_cell_length_a    25.224
_cell_length_b    25.224
_cell_length_c    25.224
_cell_angle_alpha 90
_cell_angle_beta  90
_cell_angle_gamma 90
_cell_volume      16048.8

_symmetry_cell_setting          triclinic
_symmetry_space_group_name_Hall 'P 1'
_symmetry_space_group_name_H-M  'P 1'
_symmetry_Int_Tables_number     1

_symmetry_equiv_pos_as_xyz 'x,y,z'

loop_
_atom_site_label
_atom_site_type_symbol
_atom_site_fract_x
_atom_site_fract_y
_atom_site_fract_z
_atom_site_charge
Zr1      Zr     0.511350000000     0.487520000000     0.403420000000     0          
O2       O      0.547550000000     0.440150000000     0.463880000000     0          
S3       S      0.289680000000     0.500900000000     0.325910000000     0          
O4       O      0.441600000000     0.490620000000     0.350780000000     0          
O5       O      0.370970000000     0.506190000000     0.406010000000     0          
C6       C      0.392700000000     0.497700000000     0.360900000000     0          
C7       C      0.356700000000     0.495900000000     0.315500000000     0          
C8       C      0.368300000000     0.490800000000     0.263100000000     0          
H9       H      0.403300000000     0.488200000000     0.249700000000     0          
C10      C      0.323000000000     0.489900000000     0.231100000000     0          
H11      H      0.324100000000     0.486300000000     0.193600000000     0          
C12      C      0.277200000000     0.494600000000     0.259400000000     0          
S13      S      0.673450000000     0.468480000000     0.289180000000     0          
O14      O      0.591310000000     0.473610000000     0.369880000000     0          
O15      O      0.648970000000     0.474310000000     0.442630000000     0          
C16      C      0.637300000000     0.472000000000     0.392400000000     0          
C17      C      0.683200000000     0.467200000000     0.356400000000     0          
C18      C      0.735500000000     0.463700000000     0.368700000000     0          
H19      H      0.748700000000     0.462500000000     0.404000000000     0          
C20      C      0.767700000000     0.461900000000     0.323500000000     0          
H21      H      0.805300000000     0.460300000000     0.325100000000     0          
C22      C      0.740000000000     0.462700000000     0.277200000000     0          
Zr23     Zr     0.988650000000     0.012480000000     0.403420000000     0          
O24      O      0.952450000000     0.059850000000     0.463880000000     0          
S25      S      0.210320000000     0.999100000000     0.325910000000     0          
O26      O      0.058400000000     0.009380000000     0.350780000000     0          
O27      O      0.129030000000     0.993810000000     0.406010000000     0          
C28      C      0.107300000000     0.002300000000     0.360900000000     0          
C29      C      0.143300000000     0.004100000000     0.315500000000     0          
C30      C      0.131700000000     0.009200000000     0.263100000000     0          
H31      H      0.096700000000     0.011800000000     0.249700000000     0          
C32      C      0.177000000000     0.010100000000     0.231100000000     0          
H33      H      0.175900000000     0.013700000000     0.193600000000     0          
C34      C      0.222800000000     0.005400000000     0.259400000000     0          
S35      S      0.826550000000     0.031520000000     0.289180000000     0          
O36      O      0.908690000000     0.026390000000     0.369880000000     0          
O37      O      0.851030000000     0.025690000000     0.442630000000     0          
C38      C      0.862700000000     0.028000000000     0.392400000000     0          
C39      C      0.816800000000     0.032800000000     0.356400000000     0          
C40      C      0.764500000000     0.036300000000     0.368700000000     0          
H41      H      0.751300000000     0.037500000000     0.404000000000     0          
C42      C      0.732300000000     0.038100000000     0.323500000000     0          
H43      H      0.694700000000     0.039700000000     0.325100000000     0          
C44      C      0.760000000000     0.037300000000     0.277200000000     0          
Zr45     Zr     0.988650000000     0.487520000000     0.096580000000     0          
O46      O      0.952450000000     0.440150000000     0.036120000000     0          
S47      S      0.210320000000     0.500900000000     0.174090000000     0          
O48      O      0.058400000000     0.490620000000     0.149220000000     0          
O49      O      0.129030000000     0.506190000000     0.093990000000     0          
C50      C      0.107300000000     0.497700000000     0.139100000000     0          
C51      C      0.143300000000     0.495900000000     0.184500000000     0          
C52      C      0.131700000000     0.490800000000     0.236900000000     0          
H53      H      0.096700000000     0.488200000000     0.250300000000     0          
C54      C      0.177000000000     0.489900000000     0.268900000000     0          
H55      H      0.175900000000     0.486300000000     0.306400000000     0          
C56      C      0.222800000000     0.494600000000     0.240600000000     0          
S57      S      0.826550000000     0.468480000000     0.210820000000     0          
O58      O      0.908690000000     0.473610000000     0.130120000000     0          
O59      O      0.851030000000     0.474310000000     0.057370000000     0          
C60      C      0.862700000000     0.472000000000     0.107600000000     0          
C61      C      0.816800000000     0.467200000000     0.143600000000     0          
C62      C      0.764500000000     0.463700000000     0.131300000000     0          
H63      H      0.751300000000     0.462500000000     0.096000000000     0          
C64      C      0.732300000000     0.461900000000     0.176500000000     0          
H65      H      0.694700000000     0.460300000000     0.174900000000     0          
C66      C      0.760000000000     0.462700000000     0.222800000000     0          
Zr67     Zr     0.511350000000     0.012480000000     0.096580000000     0          
O68      O      0.547550000000     0.059850000000     0.036120000000     0          
S69      S      0.289680000000     0.999100000000     0.174090000000     0          
O70      O      0.441600000000     0.009380000000     0.149220000000     0          
O71      O      0.370970000000     0.993810000000     0.093990000000     0          
C72      C      0.392700000000     0.002300000000     0.139100000000     0          
C73      C      0.356700000000     0.004100000000     0.184500000000     0          
C74      C      0.368300000000     0.009200000000     0.236900000000     0          
H75      H      0.403300000000     0.011800000000     0.250300000000     0          
C76      C      0.323000000000     0.010100000000     0.268900000000     0          
H77      H      0.324100000000     0.013700000000     0.306400000000     0          
C78      C      0.277200000000     0.005400000000     0.240600000000     0          
S79      S      0.673450000000     0.031520000000     0.210820000000     0          
O80      O      0.591310000000     0.026390000000     0.130120000000     0          
O81      O      0.648970000000     0.025690000000     0.057370000000     0          
C82      C      0.637300000000     0.028000000000     0.107600000000     0          
C83      C      0.683200000000     0.032800000000     0.143600000000     0          
C84      C      0.735500000000     0.036300000000     0.131300000000     0          
H85      H      0.748700000000     0.037500000000     0.096000000000     0          
C86      C      0.767700000000     0.038100000000     0.176500000000     0          
H87      H      0.805300000000     0.039700000000     0.174900000000     0          
C88      C      0.740000000000     0.037300000000     0.222800000000     0          
Zr89     Zr     0.403420000000     0.511350000000     0.487520000000     0          
O90      O      0.463880000000     0.547550000000     0.440150000000     0          
S91      S      0.325910000000     0.289680000000     0.500900000000     0          
O92      O      0.350780000000     0.441600000000     0.490620000000     0          
O93      O      0.406010000000     0.370970000000     0.506190000000     0          
C94      C      0.360900000000     0.392700000000     0.497700000000     0          
C95      C      0.315500000000     0.356700000000     0.495900000000     0          
C96      C      0.263100000000     0.368300000000     0.490800000000     0          
H97      H      0.249700000000     0.403300000000     0.488200000000     0          
C98      C      0.231100000000     0.323000000000     0.489900000000     0          
H99      H      0.193600000000     0.324100000000     0.486300000000     0          
C100     C      0.259400000000     0.277200000000     0.494600000000     0          
S101     S      0.289180000000     0.673450000000     0.468480000000     0          
O102     O      0.369880000000     0.591310000000     0.473610000000     0          
O103     O      0.442630000000     0.648970000000     0.474310000000     0          
C104     C      0.392400000000     0.637300000000     0.472000000000     0          
C105     C      0.356400000000     0.683200000000     0.467200000000     0          
C106     C      0.368700000000     0.735500000000     0.463700000000     0          
H107     H      0.404000000000     0.748700000000     0.462500000000     0          
C108     C      0.323500000000     0.767700000000     0.461900000000     0          
H109     H      0.325100000000     0.805300000000     0.460300000000     0          
C110     C      0.277200000000     0.740000000000     0.462700000000     0          
Zr111    Zr     0.403420000000     0.988650000000     0.012480000000     0          
O112     O      0.463880000000     0.952450000000     0.059850000000     0          
S113     S      0.325910000000     0.210320000000     0.999100000000     0          
O114     O      0.350780000000     0.058400000000     0.009380000000     0          
O115     O      0.406010000000     0.129030000000     0.993810000000     0          
C116     C      0.360900000000     0.107300000000     0.002300000000     0          
C117     C      0.315500000000     0.143300000000     0.004100000000     0          
C118     C      0.263100000000     0.131700000000     0.009200000000     0          
H119     H      0.249700000000     0.096700000000     0.011800000000     0          
C120     C      0.231100000000     0.177000000000     0.010100000000     0          
H121     H      0.193600000000     0.175900000000     0.013700000000     0          
C122     C      0.259400000000     0.222800000000     0.005400000000     0          
S123     S      0.289180000000     0.826550000000     0.031520000000     0          
O124     O      0.369880000000     0.908690000000     0.026390000000     0          
O125     O      0.442630000000     0.851030000000     0.025690000000     0          
C126     C      0.392400000000     0.862700000000     0.028000000000     0          
C127     C      0.356400000000     0.816800000000     0.032800000000     0          
C128     C      0.368700000000     0.764500000000     0.036300000000     0          
H129     H      0.404000000000     0.751300000000     0.037500000000     0          
C130     C      0.323500000000     0.732300000000     0.038100000000     0          
H131     H      0.325100000000     0.694700000000     0.039700000000     0          
C132     C      0.277200000000     0.760000000000     0.037300000000     0          
Zr133    Zr     0.096580000000     0.988650000000     0.487520000000     0          
O134     O      0.036120000000     0.952450000000     0.440150000000     0          
S135     S      0.174090000000     0.210320000000     0.500900000000     0          
O136     O      0.149220000000     0.058400000000     0.490620000000     0          
O137     O      0.093990000000     0.129030000000     0.506190000000     0          
C138     C      0.139100000000     0.107300000000     0.497700000000     0          
C139     C      0.184500000000     0.143300000000     0.495900000000     0          
C140     C      0.236900000000     0.131700000000     0.490800000000     0          
H141     H      0.250300000000     0.096700000000     0.488200000000     0          
C142     C      0.268900000000     0.177000000000     0.489900000000     0          
H143     H      0.306400000000     0.175900000000     0.486300000000     0          
C144     C      0.240600000000     0.222800000000     0.494600000000     0          
S145     S      0.210820000000     0.826550000000     0.468480000000     0          
O146     O      0.130120000000     0.908690000000     0.473610000000     0          
O147     O      0.057370000000     0.851030000000     0.474310000000     0          
C148     C      0.107600000000     0.862700000000     0.472000000000     0          
C149     C      0.143600000000     0.816800000000     0.467200000000     0          
C150     C      0.131300000000     0.764500000000     0.463700000000     0          
H151     H      0.096000000000     0.751300000000     0.462500000000     0          
C152     C      0.176500000000     0.732300000000     0.461900000000     0          
H153     H      0.174900000000     0.694700000000     0.460300000000     0          
C154     C      0.222800000000     0.760000000000     0.462700000000     0          
Zr155    Zr     0.096580000000     0.511350000000     0.012480000000     0          
O156     O      0.036120000000     0.547550000000     0.059850000000     0          
S157     S      0.174090000000     0.289680000000     0.999100000000     0          
O158     O      0.149220000000     0.441600000000     0.009380000000     0          
O159     O      0.093990000000     0.370970000000     0.993810000000     0          
C160     C      0.139100000000     0.392700000000     0.002300000000     0          
C161     C      0.184500000000     0.356700000000     0.004100000000     0          
C162     C      0.236900000000     0.368300000000     0.009200000000     0          
H163     H      0.250300000000     0.403300000000     0.011800000000     0          
C164     C      0.268900000000     0.323000000000     0.010100000000     0          
H165     H      0.306400000000     0.324100000000     0.013700000000     0          
C166     C      0.240600000000     0.277200000000     0.005400000000     0          
S167     S      0.210820000000     0.673450000000     0.031520000000     0          
O168     O      0.130120000000     0.591310000000     0.026390000000     0          
O169     O      0.057370000000     0.648970000000     0.025690000000     0          
C170     C      0.107600000000     0.637300000000     0.028000000000     0          
C171     C      0.143600000000     0.683200000000     0.032800000000     0          
C172     C      0.131300000000     0.735500000000     0.036300000000     0          
H173     H      0.096000000000     0.748700000000     0.037500000000     0          
C174     C      0.176500000000     0.767700000000     0.038100000000     0          
H175     H      0.174900000000     0.805300000000     0.039700000000     0          
C176     C      0.222800000000     0.740000000000     0.037300000000     0          
Zr177    Zr     0.487520000000     0.403420000000     0.511350000000     0          
O178     O      0.440150000000     0.463880000000     0.547550000000     0          
S179     S      0.500900000000     0.325910000000     0.289680000000     0          
O180     O      0.490620000000     0.350780000000     0.441600000000     0          
O181     O      0.506190000000     0.406010000000     0.370970000000     0          
C182     C      0.497700000000     0.360900000000     0.392700000000     0          
C183     C      0.495900000000     0.315500000000     0.356700000000     0          
C184     C      0.490800000000     0.263100000000     0.368300000000     0          
H185     H      0.488200000000     0.249700000000     0.403300000000     0          
C186     C      0.489900000000     0.231100000000     0.323000000000     0          
H187     H      0.486300000000     0.193600000000     0.324100000000     0          
C188     C      0.494600000000     0.259400000000     0.277200000000     0          
S189     S      0.468480000000     0.289180000000     0.673450000000     0          
O190     O      0.473610000000     0.369880000000     0.591310000000     0          
O191     O      0.474310000000     0.442630000000     0.648970000000     0          
C192     C      0.472000000000     0.392400000000     0.637300000000     0          
C193     C      0.467200000000     0.356400000000     0.683200000000     0          
C194     C      0.463700000000     0.368700000000     0.735500000000     0          
H195     H      0.462500000000     0.404000000000     0.748700000000     0          
C196     C      0.461900000000     0.323500000000     0.767700000000     0          
H197     H      0.460300000000     0.325100000000     0.805300000000     0          
C198     C      0.462700000000     0.277200000000     0.740000000000     0          
Zr199    Zr     0.012480000000     0.403420000000     0.988650000000     0          
O200     O      0.059850000000     0.463880000000     0.952450000000     0          
S201     S      0.999100000000     0.325910000000     0.210320000000     0          
O202     O      0.009380000000     0.350780000000     0.058400000000     0          
O203     O      0.993810000000     0.406010000000     0.129030000000     0          
C204     C      0.002300000000     0.360900000000     0.107300000000     0          
C205     C      0.004100000000     0.315500000000     0.143300000000     0          
C206     C      0.009200000000     0.263100000000     0.131700000000     0          
H207     H      0.011800000000     0.249700000000     0.096700000000     0          
C208     C      0.010100000000     0.231100000000     0.177000000000     0          
H209     H      0.013700000000     0.193600000000     0.175900000000     0          
C210     C      0.005400000000     0.259400000000     0.222800000000     0          
S211     S      0.031520000000     0.289180000000     0.826550000000     0          
O212     O      0.026390000000     0.369880000000     0.908690000000     0          
O213     O      0.025690000000     0.442630000000     0.851030000000     0          
C214     C      0.028000000000     0.392400000000     0.862700000000     0          
C215     C      0.032800000000     0.356400000000     0.816800000000     0          
C216     C      0.036300000000     0.368700000000     0.764500000000     0          
H217     H      0.037500000000     0.404000000000     0.751300000000     0          
C218     C      0.038100000000     0.323500000000     0.732300000000     0          
H219     H      0.039700000000     0.325100000000     0.694700000000     0          
C220     C      0.037300000000     0.277200000000     0.760000000000     0          
Zr221    Zr     0.487520000000     0.096580000000     0.988650000000     0          
O222     O      0.440150000000     0.036120000000     0.952450000000     0          
S223     S      0.500900000000     0.174090000000     0.210320000000     0          
O224     O      0.490620000000     0.149220000000     0.058400000000     0          
O225     O      0.506190000000     0.093990000000     0.129030000000     0          
C226     C      0.497700000000     0.139100000000     0.107300000000     0          
C227     C      0.495900000000     0.184500000000     0.143300000000     0          
C228     C      0.490800000000     0.236900000000     0.131700000000     0          
H229     H      0.488200000000     0.250300000000     0.096700000000     0          
C230     C      0.489900000000     0.268900000000     0.177000000000     0          
H231     H      0.486300000000     0.306400000000     0.175900000000     0          
C232     C      0.494600000000     0.240600000000     0.222800000000     0          
S233     S      0.468480000000     0.210820000000     0.826550000000     0          
O234     O      0.473610000000     0.130120000000     0.908690000000     0          
O235     O      0.474310000000     0.057370000000     0.851030000000     0          
C236     C      0.472000000000     0.107600000000     0.862700000000     0          
C237     C      0.467200000000     0.143600000000     0.816800000000     0          
C238     C      0.463700000000     0.131300000000     0.764500000000     0          
H239     H      0.462500000000     0.096000000000     0.751300000000     0          
C240     C      0.461900000000     0.176500000000     0.732300000000     0          
H241     H      0.460300000000     0.174900000000     0.694700000000     0          
C242     C      0.462700000000     0.222800000000     0.760000000000     0          
Zr243    Zr     0.012480000000     0.096580000000     0.511350000000     0          
O244     O      0.059850000000     0.036120000000     0.547550000000     0          
S245     S      0.999100000000     0.174090000000     0.289680000000     0          
O246     O      0.009380000000     0.149220000000     0.441600000000     0          
O247     O      0.993810000000     0.093990000000     0.370970000000     0          
C248     C      0.002300000000     0.139100000000     0.392700000000     0          
C249     C      0.004100000000     0.184500000000     0.356700000000     0          
C250     C      0.009200000000     0.236900000000     0.368300000000     0          
H251     H      0.011800000000     0.250300000000     0.403300000000     0          
C252     C      0.010100000000     0.268900000000     0.323000000000     0          
H253     H      0.013700000000     0.306400000000     0.324100000000     0          
C254     C      0.005400000000     0.240600000000     0.277200000000     0          
S255     S      0.031520000000     0.210820000000     0.673450000000     0          
O256     O      0.026390000000     0.130120000000     0.591310000000     0          
O257     O      0.025690000000     0.057370000000     0.648970000000     0          
C258     C      0.028000000000     0.107600000000     0.637300000000     0          
C259     C      0.032800000000     0.143600000000     0.683200000000     0          
C260     C      0.036300000000     0.131300000000     0.735500000000     0          
H261     H      0.037500000000     0.096000000000     0.748700000000     0          
C262     C      0.038100000000     0.176500000000     0.767700000000     0          
H263     H      0.039700000000     0.174900000000     0.805300000000     0          
C264     C      0.037300000000     0.222800000000     0.740000000000     0          
Zr265    Zr     0.488650000000     0.512480000000     0.596580000000     0          
O266     O      0.452450000000     0.559850000000     0.536120000000     0          
S267     S      0.710320000000     0.499100000000     0.674090000000     0          
O268     O      0.558400000000     0.509380000000     0.649220000000     0          
O269     O      0.629030000000     0.493810000000     0.593990000000     0          
C270     C      0.607300000000     0.502300000000     0.639100000000     0          
C271     C      0.643300000000     0.504100000000     0.684500000000     0          
C272     C      0.631700000000     0.509200000000     0.736900000000     0          
H273     H      0.596700000000     0.511800000000     0.750300000000     0          
C274     C      0.677000000000     0.510100000000     0.768900000000     0          
H275     H      0.675900000000     0.513700000000     0.806400000000     0          
C276     C      0.722800000000     0.505400000000     0.740600000000     0          
S277     S      0.326550000000     0.531520000000     0.710820000000     0          
O278     O      0.408690000000     0.526390000000     0.630120000000     0          
O279     O      0.351030000000     0.525690000000     0.557370000000     0          
C280     C      0.362700000000     0.528000000000     0.607600000000     0          
C281     C      0.316800000000     0.532800000000     0.643600000000     0          
C282     C      0.264500000000     0.536300000000     0.631300000000     0          
H283     H      0.251300000000     0.537500000000     0.596000000000     0          
C284     C      0.232300000000     0.538100000000     0.676500000000     0          
H285     H      0.194700000000     0.539700000000     0.674900000000     0          
C286     C      0.260000000000     0.537300000000     0.722800000000     0          
Zr287    Zr     0.011350000000     0.987520000000     0.596580000000     0          
O288     O      0.047550000000     0.940150000000     0.536120000000     0          
S289     S      0.789680000000     0.000900000000     0.674090000000     0          
O290     O      0.941600000000     0.990620000000     0.649220000000     0          
O291     O      0.870970000000     0.006190000000     0.593990000000     0          
C292     C      0.892700000000     0.997700000000     0.639100000000     0          
C293     C      0.856700000000     0.995900000000     0.684500000000     0          
C294     C      0.868300000000     0.990800000000     0.736900000000     0          
H295     H      0.903300000000     0.988200000000     0.750300000000     0          
C296     C      0.823000000000     0.989900000000     0.768900000000     0          
H297     H      0.824100000000     0.986300000000     0.806400000000     0          
C298     C      0.777200000000     0.994600000000     0.740600000000     0          
S299     S      0.173450000000     0.968480000000     0.710820000000     0          
O300     O      0.091310000000     0.973610000000     0.630120000000     0          
O301     O      0.148970000000     0.974310000000     0.557370000000     0          
C302     C      0.137300000000     0.972000000000     0.607600000000     0          
C303     C      0.183200000000     0.967200000000     0.643600000000     0          
C304     C      0.235500000000     0.963700000000     0.631300000000     0          
H305     H      0.248700000000     0.962500000000     0.596000000000     0          
C306     C      0.267700000000     0.961900000000     0.676500000000     0          
H307     H      0.305300000000     0.960300000000     0.674900000000     0          
C308     C      0.240000000000     0.962700000000     0.722800000000     0          
Zr309    Zr     0.011350000000     0.512480000000     0.903420000000     0          
O310     O      0.047550000000     0.559850000000     0.963880000000     0          
S311     S      0.789680000000     0.499100000000     0.825910000000     0          
O312     O      0.941600000000     0.509380000000     0.850780000000     0          
O313     O      0.870970000000     0.493810000000     0.906010000000     0          
C314     C      0.892700000000     0.502300000000     0.860900000000     0          
C315     C      0.856700000000     0.504100000000     0.815500000000     0          
C316     C      0.868300000000     0.509200000000     0.763100000000     0          
H317     H      0.903300000000     0.511800000000     0.749700000000     0          
C318     C      0.823000000000     0.510100000000     0.731100000000     0          
H319     H      0.824100000000     0.513700000000     0.693600000000     0          
C320     C      0.777200000000     0.505400000000     0.759400000000     0          
S321     S      0.173450000000     0.531520000000     0.789180000000     0          
O322     O      0.091310000000     0.526390000000     0.869880000000     0          
O323     O      0.148970000000     0.525690000000     0.942630000000     0          
C324     C      0.137300000000     0.528000000000     0.892400000000     0          
C325     C      0.183200000000     0.532800000000     0.856400000000     0          
C326     C      0.235500000000     0.536300000000     0.868700000000     0          
H327     H      0.248700000000     0.537500000000     0.904000000000     0          
C328     C      0.267700000000     0.538100000000     0.823500000000     0          
H329     H      0.305300000000     0.539700000000     0.825100000000     0          
C330     C      0.240000000000     0.537300000000     0.777200000000     0          
Zr331    Zr     0.488650000000     0.987520000000     0.903420000000     0          
O332     O      0.452450000000     0.940150000000     0.963880000000     0          
S333     S      0.710320000000     0.000900000000     0.825910000000     0          
O334     O      0.558400000000     0.990620000000     0.850780000000     0          
O335     O      0.629030000000     0.006190000000     0.906010000000     0          
C336     C      0.607300000000     0.997700000000     0.860900000000     0          
C337     C      0.643300000000     0.995900000000     0.815500000000     0          
C338     C      0.631700000000     0.990800000000     0.763100000000     0          
H339     H      0.596700000000     0.988200000000     0.749700000000     0          
C340     C      0.677000000000     0.989900000000     0.731100000000     0          
H341     H      0.675900000000     0.986300000000     0.693600000000     0          
C342     C      0.722800000000     0.994600000000     0.759400000000     0          
S343     S      0.326550000000     0.968480000000     0.789180000000     0          
O344     O      0.408690000000     0.973610000000     0.869880000000     0          
O345     O      0.351030000000     0.974310000000     0.942630000000     0          
C346     C      0.362700000000     0.972000000000     0.892400000000     0          
C347     C      0.316800000000     0.967200000000     0.856400000000     0          
C348     C      0.264500000000     0.963700000000     0.868700000000     0          
H349     H      0.251300000000     0.962500000000     0.904000000000     0          
C350     C      0.232300000000     0.961900000000     0.823500000000     0          
H351     H      0.194700000000     0.960300000000     0.825100000000     0          
C352     C      0.260000000000     0.962700000000     0.777200000000     0          
Zr353    Zr     0.596580000000     0.488650000000     0.512480000000     0          
O354     O      0.536120000000     0.452450000000     0.559850000000     0          
S355     S      0.674090000000     0.710320000000     0.499100000000     0          
O356     O      0.649220000000     0.558400000000     0.509380000000     0          
O357     O      0.593990000000     0.629030000000     0.493810000000     0          
C358     C      0.639100000000     0.607300000000     0.502300000000     0          
C359     C      0.684500000000     0.643300000000     0.504100000000     0          
C360     C      0.736900000000     0.631700000000     0.509200000000     0          
H361     H      0.750300000000     0.596700000000     0.511800000000     0          
C362     C      0.768900000000     0.677000000000     0.510100000000     0          
H363     H      0.806400000000     0.675900000000     0.513700000000     0          
C364     C      0.740600000000     0.722800000000     0.505400000000     0          
S365     S      0.710820000000     0.326550000000     0.531520000000     0          
O366     O      0.630120000000     0.408690000000     0.526390000000     0          
O367     O      0.557370000000     0.351030000000     0.525690000000     0          
C368     C      0.607600000000     0.362700000000     0.528000000000     0          
C369     C      0.643600000000     0.316800000000     0.532800000000     0          
C370     C      0.631300000000     0.264500000000     0.536300000000     0          
H371     H      0.596000000000     0.251300000000     0.537500000000     0          
C372     C      0.676500000000     0.232300000000     0.538100000000     0          
H373     H      0.674900000000     0.194700000000     0.539700000000     0          
C374     C      0.722800000000     0.260000000000     0.537300000000     0          
Zr375    Zr     0.596580000000     0.011350000000     0.987520000000     0          
O376     O      0.536120000000     0.047550000000     0.940150000000     0          
S377     S      0.674090000000     0.789680000000     0.000900000000     0          
O378     O      0.649220000000     0.941600000000     0.990620000000     0          
O379     O      0.593990000000     0.870970000000     0.006190000000     0          
C380     C      0.639100000000     0.892700000000     0.997700000000     0          
C381     C      0.684500000000     0.856700000000     0.995900000000     0          
C382     C      0.736900000000     0.868300000000     0.990800000000     0          
H383     H      0.750300000000     0.903300000000     0.988200000000     0          
C384     C      0.768900000000     0.823000000000     0.989900000000     0          
H385     H      0.806400000000     0.824100000000     0.986300000000     0          
C386     C      0.740600000000     0.777200000000     0.994600000000     0          
S387     S      0.710820000000     0.173450000000     0.968480000000     0          
O388     O      0.630120000000     0.091310000000     0.973610000000     0          
O389     O      0.557370000000     0.148970000000     0.974310000000     0          
C390     C      0.607600000000     0.137300000000     0.972000000000     0          
C391     C      0.643600000000     0.183200000000     0.967200000000     0          
C392     C      0.631300000000     0.235500000000     0.963700000000     0          
H393     H      0.596000000000     0.248700000000     0.962500000000     0          
C394     C      0.676500000000     0.267700000000     0.961900000000     0          
H395     H      0.674900000000     0.305300000000     0.960300000000     0          
C396     C      0.722800000000     0.240000000000     0.962700000000     0          
Zr397    Zr     0.903420000000     0.011350000000     0.512480000000     0          
O398     O      0.963880000000     0.047550000000     0.559850000000     0          
S399     S      0.825910000000     0.789680000000     0.499100000000     0          
O400     O      0.850780000000     0.941600000000     0.509380000000     0          
O401     O      0.906010000000     0.870970000000     0.493810000000     0          
C402     C      0.860900000000     0.892700000000     0.502300000000     0          
C403     C      0.815500000000     0.856700000000     0.504100000000     0          
C404     C      0.763100000000     0.868300000000     0.509200000000     0          
H405     H      0.749700000000     0.903300000000     0.511800000000     0          
C406     C      0.731100000000     0.823000000000     0.510100000000     0          
H407     H      0.693600000000     0.824100000000     0.513700000000     0          
C408     C      0.759400000000     0.777200000000     0.505400000000     0          
S409     S      0.789180000000     0.173450000000     0.531520000000     0          
O410     O      0.869880000000     0.091310000000     0.526390000000     0          
O411     O      0.942630000000     0.148970000000     0.525690000000     0          
C412     C      0.892400000000     0.137300000000     0.528000000000     0          
C413     C      0.856400000000     0.183200000000     0.532800000000     0          
C414     C      0.868700000000     0.235500000000     0.536300000000     0          
H415     H      0.904000000000     0.248700000000     0.537500000000     0          
C416     C      0.823500000000     0.267700000000     0.538100000000     0          
H417     H      0.825100000000     0.305300000000     0.539700000000     0          
C418     C      0.777200000000     0.240000000000     0.537300000000     0          
Zr419    Zr     0.903420000000     0.488650000000     0.987520000000     0          
O420     O      0.963880000000     0.452450000000     0.940150000000     0          
S421     S      0.825910000000     0.710320000000     0.000900000000     0          
O422     O      0.850780000000     0.558400000000     0.990620000000     0          
O423     O      0.906010000000     0.629030000000     0.006190000000     0          
C424     C      0.860900000000     0.607300000000     0.997700000000     0          
C425     C      0.815500000000     0.643300000000     0.995900000000     0          
C426     C      0.763100000000     0.631700000000     0.990800000000     0          
H427     H      0.749700000000     0.596700000000     0.988200000000     0          
C428     C      0.731100000000     0.677000000000     0.989900000000     0          
H429     H      0.693600000000     0.675900000000     0.986300000000     0          
C430     C      0.759400000000     0.722800000000     0.994600000000     0          
S431     S      0.789180000000     0.326550000000     0.968480000000     0          
O432     O      0.869880000000     0.408690000000     0.973610000000     0          
O433     O      0.942630000000     0.351030000000     0.974310000000     0          
C434     C      0.892400000000     0.362700000000     0.972000000000     0          
C435     C      0.856400000000     0.316800000000     0.967200000000     0          
C436     C      0.868700000000     0.264500000000     0.963700000000     0          
H437     H      0.904000000000     0.251300000000     0.962500000000     0          
C438     C      0.823500000000     0.232300000000     0.961900000000     0          
H439     H      0.825100000000     0.194700000000     0.960300000000     0          
C440     C      0.777200000000     0.260000000000     0.962700000000     0          
Zr441    Zr     0.512480000000     0.596580000000     0.488650000000     0          
O442     O      0.559850000000     0.536120000000     0.452450000000     0          
S443     S      0.499100000000     0.674090000000     0.710320000000     0          
O444     O      0.509380000000     0.649220000000     0.558400000000     0          
O445     O      0.493810000000     0.593990000000     0.629030000000     0          
C446     C      0.502300000000     0.639100000000     0.607300000000     0          
C447     C      0.504100000000     0.684500000000     0.643300000000     0          
C448     C      0.509200000000     0.736900000000     0.631700000000     0          
H449     H      0.511800000000     0.750300000000     0.596700000000     0          
C450     C      0.510100000000     0.768900000000     0.677000000000     0          
H451     H      0.513700000000     0.806400000000     0.675900000000     0          
C452     C      0.505400000000     0.740600000000     0.722800000000     0          
S453     S      0.531520000000     0.710820000000     0.326550000000     0          
O454     O      0.526390000000     0.630120000000     0.408690000000     0          
O455     O      0.525690000000     0.557370000000     0.351030000000     0          
C456     C      0.528000000000     0.607600000000     0.362700000000     0          
C457     C      0.532800000000     0.643600000000     0.316800000000     0          
C458     C      0.536300000000     0.631300000000     0.264500000000     0          
H459     H      0.537500000000     0.596000000000     0.251300000000     0          
C460     C      0.538100000000     0.676500000000     0.232300000000     0          
H461     H      0.539700000000     0.674900000000     0.194700000000     0          
C462     C      0.537300000000     0.722800000000     0.260000000000     0          
Zr463    Zr     0.987520000000     0.596580000000     0.011350000000     0          
O464     O      0.940150000000     0.536120000000     0.047550000000     0          
S465     S      0.000900000000     0.674090000000     0.789680000000     0          
O466     O      0.990620000000     0.649220000000     0.941600000000     0          
O467     O      0.006190000000     0.593990000000     0.870970000000     0          
C468     C      0.997700000000     0.639100000000     0.892700000000     0          
C469     C      0.995900000000     0.684500000000     0.856700000000     0          
C470     C      0.990800000000     0.736900000000     0.868300000000     0          
H471     H      0.988200000000     0.750300000000     0.903300000000     0          
C472     C      0.989900000000     0.768900000000     0.823000000000     0          
H473     H      0.986300000000     0.806400000000     0.824100000000     0          
C474     C      0.994600000000     0.740600000000     0.777200000000     0          
S475     S      0.968480000000     0.710820000000     0.173450000000     0          
O476     O      0.973610000000     0.630120000000     0.091310000000     0          
O477     O      0.974310000000     0.557370000000     0.148970000000     0          
C478     C      0.972000000000     0.607600000000     0.137300000000     0          
C479     C      0.967200000000     0.643600000000     0.183200000000     0          
C480     C      0.963700000000     0.631300000000     0.235500000000     0          
H481     H      0.962500000000     0.596000000000     0.248700000000     0          
C482     C      0.961900000000     0.676500000000     0.267700000000     0          
H483     H      0.960300000000     0.674900000000     0.305300000000     0          
C484     C      0.962700000000     0.722800000000     0.240000000000     0          
Zr485    Zr     0.512480000000     0.903420000000     0.011350000000     0          
O486     O      0.559850000000     0.963880000000     0.047550000000     0          
S487     S      0.499100000000     0.825910000000     0.789680000000     0          
O488     O      0.509380000000     0.850780000000     0.941600000000     0          
O489     O      0.493810000000     0.906010000000     0.870970000000     0          
C490     C      0.502300000000     0.860900000000     0.892700000000     0          
C491     C      0.504100000000     0.815500000000     0.856700000000     0          
C492     C      0.509200000000     0.763100000000     0.868300000000     0          
H493     H      0.511800000000     0.749700000000     0.903300000000     0          
C494     C      0.510100000000     0.731100000000     0.823000000000     0          
H495     H      0.513700000000     0.693600000000     0.824100000000     0          
C496     C      0.505400000000     0.759400000000     0.777200000000     0          
S497     S      0.531520000000     0.789180000000     0.173450000000     0          
O498     O      0.526390000000     0.869880000000     0.091310000000     0          
O499     O      0.525690000000     0.942630000000     0.148970000000     0          
C500     C      0.528000000000     0.892400000000     0.137300000000     0          
C501     C      0.532800000000     0.856400000000     0.183200000000     0          
C502     C      0.536300000000     0.868700000000     0.235500000000     0          
H503     H      0.537500000000     0.904000000000     0.248700000000     0          
C504     C      0.538100000000     0.823500000000     0.267700000000     0          
H505     H      0.539700000000     0.825100000000     0.305300000000     0          
C506     C      0.537300000000     0.777200000000     0.240000000000     0          
Zr507    Zr     0.987520000000     0.903420000000     0.488650000000     0          
O508     O      0.940150000000     0.963880000000     0.452450000000     0          
S509     S      0.000900000000     0.825910000000     0.710320000000     0          
O510     O      0.990620000000     0.850780000000     0.558400000000     0          
O511     O      0.006190000000     0.906010000000     0.629030000000     0          
C512     C      0.997700000000     0.860900000000     0.607300000000     0          
C513     C      0.995900000000     0.815500000000     0.643300000000     0          
C514     C      0.990800000000     0.763100000000     0.631700000000     0          
H515     H      0.988200000000     0.749700000000     0.596700000000     0          
C516     C      0.989900000000     0.731100000000     0.677000000000     0          
H517     H      0.986300000000     0.693600000000     0.675900000000     0          
C518     C      0.994600000000     0.759400000000     0.722800000000     0          
S519     S      0.968480000000     0.789180000000     0.326550000000     0          
O520     O      0.973610000000     0.869880000000     0.408690000000     0          
O521     O      0.974310000000     0.942630000000     0.351030000000     0          
C522     C      0.972000000000     0.892400000000     0.362700000000     0          
C523     C      0.967200000000     0.856400000000     0.316800000000     0          
C524     C      0.963700000000     0.868700000000     0.264500000000     0          
H525     H      0.962500000000     0.904000000000     0.251300000000     0          
C526     C      0.961900000000     0.823500000000     0.232300000000     0          
H527     H      0.960300000000     0.825100000000     0.194700000000     0          
C528     C      0.962700000000     0.777200000000     0.260000000000     0          
O529     O      0.452100000000     0.452100000000     0.452100000000     0          
H530     H      0.433100000000     0.433100000000     0.433100000000     0          
O531     O      0.047900000000     0.047900000000     0.452100000000     0          
H532     H      0.066900000000     0.066900000000     0.433100000000     0          
O533     O      0.047900000000     0.452100000000     0.047900000000     0          
H534     H      0.066900000000     0.433100000000     0.066900000000     0          
O535     O      0.452100000000     0.047900000000     0.047900000000     0          
H536     H      0.433100000000     0.066900000000     0.066900000000     0          
O537     O      0.547900000000     0.547900000000     0.547900000000     0          
H538     H      0.566900000000     0.566900000000     0.566900000000     0          
O539     O      0.952100000000     0.952100000000     0.547900000000     0          
H540     H      0.933100000000     0.933100000000     0.566900000000     0          
O541     O      0.952100000000     0.547900000000     0.952100000000     0          
H542     H      0.933100000000     0.566900000000     0.933100000000     0          
O543     O      0.547900000000     0.952100000000     0.952100000000     0          
H544     H      0.566900000000     0.933100000000     0.933100000000     0          


