data_WUPTUY01

_audit_creation_method RASPA-1.0
_audit_creation_date 2020-11-2
_audit_author_name 'Rocio Bueno-Perez'

_cell_length_a    39.8116
_cell_length_b    39.8116
_cell_length_c    39.8116
_cell_angle_alpha 90
_cell_angle_beta  90
_cell_angle_gamma 90
_cell_volume      63099.9

_symmetry_cell_setting          triclinic
_symmetry_space_group_name_Hall 'P 1'
_symmetry_space_group_name_H-M  'P 1'
_symmetry_Int_Tables_number     1

_symmetry_equiv_pos_as_xyz 'x,y,z'

loop_
_atom_site_label
_atom_site_type_symbol
_atom_site_fract_x
_atom_site_fract_y
_atom_site_fract_z
_atom_site_charge
O1       O      0.423550000000     0.374570000000     0.785630000000     0          
C2       C      0.470540000000     0.364500000000     0.736510000000     0          
H3       H      0.447600000000     0.366500000000     0.730400000000     0          
C4       C      0.494930000000     0.358790000000     0.712070000000     0          
H5       H      0.488400000000     0.356600000000     0.689200000000     0          
C6       C      0.591470000000     0.341300000000     0.615950000000     0          
H7       H      0.568500000000     0.341100000000     0.609500000000     0          
O8       O      0.423550000000     0.874570000000     0.285630000000     0          
C9       C      0.470540000000     0.864500000000     0.236510000000     0          
H10      H      0.447600000000     0.866500000000     0.230400000000     0          
C11      C      0.494930000000     0.858790000000     0.212070000000     0          
H12      H      0.488400000000     0.856600000000     0.189200000000     0          
C13      C      0.591470000000     0.841300000000     0.115950000000     0          
H14      H      0.568500000000     0.841100000000     0.109500000000     0          
O15      O      0.923550000000     0.374570000000     0.285630000000     0          
C16      C      0.970540000000     0.364500000000     0.236510000000     0          
H17      H      0.947600000000     0.366500000000     0.230400000000     0          
C18      C      0.994930000000     0.358790000000     0.212070000000     0          
H19      H      0.988400000000     0.356600000000     0.189200000000     0          
C20      C      0.091470000000     0.341300000000     0.115950000000     0          
H21      H      0.068500000000     0.341100000000     0.109500000000     0          
O22      O      0.923550000000     0.874570000000     0.785630000000     0          
C23      C      0.970540000000     0.864500000000     0.736510000000     0          
H24      H      0.947600000000     0.866500000000     0.730400000000     0          
C25      C      0.994930000000     0.858790000000     0.712070000000     0          
H26      H      0.988400000000     0.856600000000     0.689200000000     0          
C27      C      0.091470000000     0.841300000000     0.615950000000     0          
H28      H      0.068500000000     0.841100000000     0.609500000000     0          
O29      O      0.326450000000     0.875430000000     0.285630000000     0          
C30      C      0.279460000000     0.885500000000     0.236510000000     0          
H31      H      0.302400000000     0.883500000000     0.230400000000     0          
C32      C      0.255070000000     0.891210000000     0.212070000000     0          
H33      H      0.261600000000     0.893400000000     0.189200000000     0          
C34      C      0.158530000000     0.908700000000     0.115950000000     0          
H35      H      0.181500000000     0.908900000000     0.109500000000     0          
O36      O      0.326450000000     0.375430000000     0.785630000000     0          
C37      C      0.279460000000     0.385500000000     0.736510000000     0          
H38      H      0.302400000000     0.383500000000     0.730400000000     0          
C39      C      0.255070000000     0.391210000000     0.712070000000     0          
H40      H      0.261600000000     0.393400000000     0.689200000000     0          
C41      C      0.158530000000     0.408700000000     0.615950000000     0          
H42      H      0.181500000000     0.408900000000     0.609500000000     0          
O43      O      0.826450000000     0.875430000000     0.785630000000     0          
C44      C      0.779460000000     0.885500000000     0.736510000000     0          
H45      H      0.802400000000     0.883500000000     0.730400000000     0          
C46      C      0.755070000000     0.891210000000     0.712070000000     0          
H47      H      0.761600000000     0.893400000000     0.689200000000     0          
C48      C      0.658530000000     0.908700000000     0.615950000000     0          
H49      H      0.681500000000     0.908900000000     0.609500000000     0          
O50      O      0.826450000000     0.375430000000     0.285630000000     0          
C51      C      0.779460000000     0.385500000000     0.236510000000     0          
H52      H      0.802400000000     0.383500000000     0.230400000000     0          
C53      C      0.755070000000     0.391210000000     0.212070000000     0          
H54      H      0.761600000000     0.393400000000     0.189200000000     0          
C55      C      0.658530000000     0.408700000000     0.115950000000     0          
H56      H      0.681500000000     0.408900000000     0.109500000000     0          
O57      O      0.826450000000     0.874570000000     0.964370000000     0          
C58      C      0.779460000000     0.864500000000     0.013490000000     0          
H59      H      0.802400000000     0.866500000000     0.019600000000     0          
C60      C      0.755070000000     0.858790000000     0.037930000000     0          
H61      H      0.761600000000     0.856600000000     0.060800000000     0          
C62      C      0.658530000000     0.841300000000     0.134050000000     0          
H63      H      0.681500000000     0.841100000000     0.140500000000     0          
O64      O      0.826450000000     0.374570000000     0.464370000000     0          
C65      C      0.779460000000     0.364500000000     0.513490000000     0          
H66      H      0.802400000000     0.366500000000     0.519600000000     0          
C67      C      0.755070000000     0.358790000000     0.537930000000     0          
H68      H      0.761600000000     0.356600000000     0.560800000000     0          
C69      C      0.658530000000     0.341300000000     0.634050000000     0          
H70      H      0.681500000000     0.341100000000     0.640500000000     0          
O71      O      0.326450000000     0.874570000000     0.464370000000     0          
C72      C      0.279460000000     0.864500000000     0.513490000000     0          
H73      H      0.302400000000     0.866500000000     0.519600000000     0          
C74      C      0.255070000000     0.858790000000     0.537930000000     0          
H75      H      0.261600000000     0.856600000000     0.560800000000     0          
C76      C      0.158530000000     0.841300000000     0.634050000000     0          
H77      H      0.181500000000     0.841100000000     0.640500000000     0          
O78      O      0.326450000000     0.374570000000     0.964370000000     0          
C79      C      0.279460000000     0.364500000000     0.013490000000     0          
H80      H      0.302400000000     0.366500000000     0.019600000000     0          
C81      C      0.255070000000     0.358790000000     0.037930000000     0          
H82      H      0.261600000000     0.356600000000     0.060800000000     0          
C83      C      0.158530000000     0.341300000000     0.134050000000     0          
H84      H      0.181500000000     0.341100000000     0.140500000000     0          
O85      O      0.923550000000     0.375430000000     0.464370000000     0          
C86      C      0.970540000000     0.385500000000     0.513490000000     0          
H87      H      0.947600000000     0.383500000000     0.519600000000     0          
C88      C      0.994930000000     0.391210000000     0.537930000000     0          
H89      H      0.988400000000     0.393400000000     0.560800000000     0          
C90      C      0.091470000000     0.408700000000     0.634050000000     0          
H91      H      0.068500000000     0.408900000000     0.640500000000     0          
O92      O      0.923550000000     0.875430000000     0.964370000000     0          
C93      C      0.970540000000     0.885500000000     0.013490000000     0          
H94      H      0.947600000000     0.883500000000     0.019600000000     0          
C95      C      0.994930000000     0.891210000000     0.037930000000     0          
H96      H      0.988400000000     0.893400000000     0.060800000000     0          
C97      C      0.091470000000     0.908700000000     0.134050000000     0          
H98      H      0.068500000000     0.908900000000     0.140500000000     0          
O99      O      0.423550000000     0.375430000000     0.964370000000     0          
C100     C      0.470540000000     0.385500000000     0.013490000000     0          
H101     H      0.447600000000     0.383500000000     0.019600000000     0          
C102     C      0.494930000000     0.391210000000     0.037930000000     0          
H103     H      0.488400000000     0.393400000000     0.060800000000     0          
C104     C      0.591470000000     0.408700000000     0.134050000000     0          
H105     H      0.568500000000     0.408900000000     0.140500000000     0          
O106     O      0.423550000000     0.875430000000     0.464370000000     0          
C107     C      0.470540000000     0.885500000000     0.513490000000     0          
H108     H      0.447600000000     0.883500000000     0.519600000000     0          
C109     C      0.494930000000     0.891210000000     0.537930000000     0          
H110     H      0.488400000000     0.893400000000     0.560800000000     0          
C111     C      0.591470000000     0.908700000000     0.634050000000     0          
H112     H      0.568500000000     0.908900000000     0.640500000000     0          
O113     O      0.785630000000     0.423550000000     0.374570000000     0          
C114     C      0.736510000000     0.470540000000     0.364500000000     0          
H115     H      0.730400000000     0.447600000000     0.366500000000     0          
C116     C      0.712070000000     0.494930000000     0.358790000000     0          
H117     H      0.689200000000     0.488400000000     0.356600000000     0          
C118     C      0.615950000000     0.591470000000     0.341300000000     0          
H119     H      0.609500000000     0.568500000000     0.341100000000     0          
O120     O      0.785630000000     0.923550000000     0.874570000000     0          
C121     C      0.736510000000     0.970540000000     0.864500000000     0          
H122     H      0.730400000000     0.947600000000     0.866500000000     0          
C123     C      0.712070000000     0.994930000000     0.858790000000     0          
H124     H      0.689200000000     0.988400000000     0.856600000000     0          
C125     C      0.615950000000     0.091470000000     0.841300000000     0          
H126     H      0.609500000000     0.068500000000     0.841100000000     0          
O127     O      0.285630000000     0.423550000000     0.874570000000     0          
C128     C      0.236510000000     0.470540000000     0.864500000000     0          
H129     H      0.230400000000     0.447600000000     0.866500000000     0          
C130     C      0.212070000000     0.494930000000     0.858790000000     0          
H131     H      0.189200000000     0.488400000000     0.856600000000     0          
C132     C      0.115950000000     0.591470000000     0.841300000000     0          
H133     H      0.109500000000     0.568500000000     0.841100000000     0          
O134     O      0.285630000000     0.923550000000     0.374570000000     0          
C135     C      0.236510000000     0.970540000000     0.364500000000     0          
H136     H      0.230400000000     0.947600000000     0.366500000000     0          
C137     C      0.212070000000     0.994930000000     0.358790000000     0          
H138     H      0.189200000000     0.988400000000     0.356600000000     0          
C139     C      0.115950000000     0.091470000000     0.341300000000     0          
H140     H      0.109500000000     0.068500000000     0.341100000000     0          
O141     O      0.285630000000     0.326450000000     0.875430000000     0          
C142     C      0.236510000000     0.279460000000     0.885500000000     0          
H143     H      0.230400000000     0.302400000000     0.883500000000     0          
C144     C      0.212070000000     0.255070000000     0.891210000000     0          
H145     H      0.189200000000     0.261600000000     0.893400000000     0          
C146     C      0.115950000000     0.158530000000     0.908700000000     0          
H147     H      0.109500000000     0.181500000000     0.908900000000     0          
O148     O      0.285630000000     0.826450000000     0.375430000000     0          
C149     C      0.236510000000     0.779460000000     0.385500000000     0          
H150     H      0.230400000000     0.802400000000     0.383500000000     0          
C151     C      0.212070000000     0.755070000000     0.391210000000     0          
H152     H      0.189200000000     0.761600000000     0.393400000000     0          
C153     C      0.115950000000     0.658530000000     0.408700000000     0          
H154     H      0.109500000000     0.681500000000     0.408900000000     0          
O155     O      0.785630000000     0.326450000000     0.375430000000     0          
C156     C      0.736510000000     0.279460000000     0.385500000000     0          
H157     H      0.730400000000     0.302400000000     0.383500000000     0          
C158     C      0.712070000000     0.255070000000     0.391210000000     0          
H159     H      0.689200000000     0.261600000000     0.393400000000     0          
C160     C      0.615950000000     0.158530000000     0.408700000000     0          
H161     H      0.609500000000     0.181500000000     0.408900000000     0          
O162     O      0.785630000000     0.826450000000     0.875430000000     0          
C163     C      0.736510000000     0.779460000000     0.885500000000     0          
H164     H      0.730400000000     0.802400000000     0.883500000000     0          
C165     C      0.712070000000     0.755070000000     0.891210000000     0          
H166     H      0.689200000000     0.761600000000     0.893400000000     0          
C167     C      0.615950000000     0.658530000000     0.908700000000     0          
H168     H      0.609500000000     0.681500000000     0.908900000000     0          
O169     O      0.964370000000     0.826450000000     0.874570000000     0          
C170     C      0.013490000000     0.779460000000     0.864500000000     0          
H171     H      0.019600000000     0.802400000000     0.866500000000     0          
C172     C      0.037930000000     0.755070000000     0.858790000000     0          
H173     H      0.060800000000     0.761600000000     0.856600000000     0          
C174     C      0.134050000000     0.658530000000     0.841300000000     0          
H175     H      0.140500000000     0.681500000000     0.841100000000     0          
O176     O      0.964370000000     0.326450000000     0.374570000000     0          
C177     C      0.013490000000     0.279460000000     0.364500000000     0          
H178     H      0.019600000000     0.302400000000     0.366500000000     0          
C179     C      0.037930000000     0.255070000000     0.358790000000     0          
H180     H      0.060800000000     0.261600000000     0.356600000000     0          
C181     C      0.134050000000     0.158530000000     0.341300000000     0          
H182     H      0.140500000000     0.181500000000     0.341100000000     0          
O183     O      0.464370000000     0.826450000000     0.374570000000     0          
C184     C      0.513490000000     0.779460000000     0.364500000000     0          
H185     H      0.519600000000     0.802400000000     0.366500000000     0          
C186     C      0.537930000000     0.755070000000     0.358790000000     0          
H187     H      0.560800000000     0.761600000000     0.356600000000     0          
C188     C      0.634050000000     0.658530000000     0.341300000000     0          
H189     H      0.640500000000     0.681500000000     0.341100000000     0          
O190     O      0.464370000000     0.326450000000     0.874570000000     0          
C191     C      0.513490000000     0.279460000000     0.864500000000     0          
H192     H      0.519600000000     0.302400000000     0.866500000000     0          
C193     C      0.537930000000     0.255070000000     0.858790000000     0          
H194     H      0.560800000000     0.261600000000     0.856600000000     0          
C195     C      0.634050000000     0.158530000000     0.841300000000     0          
H196     H      0.640500000000     0.181500000000     0.841100000000     0          
O197     O      0.464370000000     0.923550000000     0.375430000000     0          
C198     C      0.513490000000     0.970540000000     0.385500000000     0          
H199     H      0.519600000000     0.947600000000     0.383500000000     0          
C200     C      0.537930000000     0.994930000000     0.391210000000     0          
H201     H      0.560800000000     0.988400000000     0.393400000000     0          
C202     C      0.634050000000     0.091470000000     0.408700000000     0          
H203     H      0.640500000000     0.068500000000     0.408900000000     0          
O204     O      0.464370000000     0.423550000000     0.875430000000     0          
C205     C      0.513490000000     0.470540000000     0.885500000000     0          
H206     H      0.519600000000     0.447600000000     0.883500000000     0          
C207     C      0.537930000000     0.494930000000     0.891210000000     0          
H208     H      0.560800000000     0.488400000000     0.893400000000     0          
C209     C      0.634050000000     0.591470000000     0.908700000000     0          
H210     H      0.640500000000     0.568500000000     0.908900000000     0          
O211     O      0.964370000000     0.923550000000     0.875430000000     0          
C212     C      0.013490000000     0.970540000000     0.885500000000     0          
H213     H      0.019600000000     0.947600000000     0.883500000000     0          
C214     C      0.037930000000     0.994930000000     0.891210000000     0          
H215     H      0.060800000000     0.988400000000     0.893400000000     0          
C216     C      0.134050000000     0.091470000000     0.908700000000     0          
H217     H      0.140500000000     0.068500000000     0.908900000000     0          
O218     O      0.964370000000     0.423550000000     0.375430000000     0          
C219     C      0.013490000000     0.470540000000     0.385500000000     0          
H220     H      0.019600000000     0.447600000000     0.383500000000     0          
C221     C      0.037930000000     0.494930000000     0.391210000000     0          
H222     H      0.060800000000     0.488400000000     0.393400000000     0          
C223     C      0.134050000000     0.591470000000     0.408700000000     0          
H224     H      0.140500000000     0.568500000000     0.408900000000     0          
O225     O      0.374570000000     0.785630000000     0.423550000000     0          
C226     C      0.364500000000     0.736510000000     0.470540000000     0          
H227     H      0.366500000000     0.730400000000     0.447600000000     0          
C228     C      0.358790000000     0.712070000000     0.494930000000     0          
H229     H      0.356600000000     0.689200000000     0.488400000000     0          
C230     C      0.341300000000     0.615950000000     0.591470000000     0          
H231     H      0.341100000000     0.609500000000     0.568500000000     0          
O232     O      0.374570000000     0.285630000000     0.923550000000     0          
C233     C      0.364500000000     0.236510000000     0.970540000000     0          
H234     H      0.366500000000     0.230400000000     0.947600000000     0          
C235     C      0.358790000000     0.212070000000     0.994930000000     0          
H236     H      0.356600000000     0.189200000000     0.988400000000     0          
C237     C      0.341300000000     0.115950000000     0.091470000000     0          
H238     H      0.341100000000     0.109500000000     0.068500000000     0          
O239     O      0.874570000000     0.785630000000     0.923550000000     0          
C240     C      0.864500000000     0.736510000000     0.970540000000     0          
H241     H      0.866500000000     0.730400000000     0.947600000000     0          
C242     C      0.858790000000     0.712070000000     0.994930000000     0          
H243     H      0.856600000000     0.689200000000     0.988400000000     0          
C244     C      0.841300000000     0.615950000000     0.091470000000     0          
H245     H      0.841100000000     0.609500000000     0.068500000000     0          
O246     O      0.874570000000     0.285630000000     0.423550000000     0          
C247     C      0.864500000000     0.236510000000     0.470540000000     0          
H248     H      0.866500000000     0.230400000000     0.447600000000     0          
C249     C      0.858790000000     0.212070000000     0.494930000000     0          
H250     H      0.856600000000     0.189200000000     0.488400000000     0          
C251     C      0.841300000000     0.115950000000     0.591470000000     0          
H252     H      0.841100000000     0.109500000000     0.568500000000     0          
O253     O      0.875430000000     0.285630000000     0.326450000000     0          
C254     C      0.885500000000     0.236510000000     0.279460000000     0          
H255     H      0.883500000000     0.230400000000     0.302400000000     0          
C256     C      0.891210000000     0.212070000000     0.255070000000     0          
H257     H      0.893400000000     0.189200000000     0.261600000000     0          
C258     C      0.908700000000     0.115950000000     0.158530000000     0          
H259     H      0.908900000000     0.109500000000     0.181500000000     0          
O260     O      0.875430000000     0.785630000000     0.826450000000     0          
C261     C      0.885500000000     0.736510000000     0.779460000000     0          
H262     H      0.883500000000     0.730400000000     0.802400000000     0          
C263     C      0.891210000000     0.712070000000     0.755070000000     0          
H264     H      0.893400000000     0.689200000000     0.761600000000     0          
C265     C      0.908700000000     0.615950000000     0.658530000000     0          
H266     H      0.908900000000     0.609500000000     0.681500000000     0          
O267     O      0.375430000000     0.285630000000     0.826450000000     0          
C268     C      0.385500000000     0.236510000000     0.779460000000     0          
H269     H      0.383500000000     0.230400000000     0.802400000000     0          
C270     C      0.391210000000     0.212070000000     0.755070000000     0          
H271     H      0.393400000000     0.189200000000     0.761600000000     0          
C272     C      0.408700000000     0.115950000000     0.658530000000     0          
H273     H      0.408900000000     0.109500000000     0.681500000000     0          
O274     O      0.375430000000     0.785630000000     0.326450000000     0          
C275     C      0.385500000000     0.736510000000     0.279460000000     0          
H276     H      0.383500000000     0.730400000000     0.302400000000     0          
C277     C      0.391210000000     0.712070000000     0.255070000000     0          
H278     H      0.393400000000     0.689200000000     0.261600000000     0          
C279     C      0.408700000000     0.615950000000     0.158530000000     0          
H280     H      0.408900000000     0.609500000000     0.181500000000     0          
O281     O      0.874570000000     0.964370000000     0.826450000000     0          
C282     C      0.864500000000     0.013490000000     0.779460000000     0          
H283     H      0.866500000000     0.019600000000     0.802400000000     0          
C284     C      0.858790000000     0.037930000000     0.755070000000     0          
H285     H      0.856600000000     0.060800000000     0.761600000000     0          
C286     C      0.841300000000     0.134050000000     0.658530000000     0          
H287     H      0.841100000000     0.140500000000     0.681500000000     0          
O288     O      0.874570000000     0.464370000000     0.326450000000     0          
C289     C      0.864500000000     0.513490000000     0.279460000000     0          
H290     H      0.866500000000     0.519600000000     0.302400000000     0          
C291     C      0.858790000000     0.537930000000     0.255070000000     0          
H292     H      0.856600000000     0.560800000000     0.261600000000     0          
C293     C      0.841300000000     0.634050000000     0.158530000000     0          
H294     H      0.841100000000     0.640500000000     0.181500000000     0          
O295     O      0.374570000000     0.964370000000     0.326450000000     0          
C296     C      0.364500000000     0.013490000000     0.279460000000     0          
H297     H      0.366500000000     0.019600000000     0.302400000000     0          
C298     C      0.358790000000     0.037930000000     0.255070000000     0          
H299     H      0.356600000000     0.060800000000     0.261600000000     0          
C300     C      0.341300000000     0.134050000000     0.158530000000     0          
H301     H      0.341100000000     0.140500000000     0.181500000000     0          
O302     O      0.374570000000     0.464370000000     0.826450000000     0          
C303     C      0.364500000000     0.513490000000     0.779460000000     0          
H304     H      0.366500000000     0.519600000000     0.802400000000     0          
C305     C      0.358790000000     0.537930000000     0.755070000000     0          
H306     H      0.356600000000     0.560800000000     0.761600000000     0          
C307     C      0.341300000000     0.634050000000     0.658530000000     0          
H308     H      0.341100000000     0.640500000000     0.681500000000     0          
O309     O      0.375430000000     0.464370000000     0.923550000000     0          
C310     C      0.385500000000     0.513490000000     0.970540000000     0          
H311     H      0.383500000000     0.519600000000     0.947600000000     0          
C312     C      0.391210000000     0.537930000000     0.994930000000     0          
H313     H      0.393400000000     0.560800000000     0.988400000000     0          
C314     C      0.408700000000     0.634050000000     0.091470000000     0          
H315     H      0.408900000000     0.640500000000     0.068500000000     0          
O316     O      0.375430000000     0.964370000000     0.423550000000     0          
C317     C      0.385500000000     0.013490000000     0.470540000000     0          
H318     H      0.383500000000     0.019600000000     0.447600000000     0          
C319     C      0.391210000000     0.037930000000     0.494930000000     0          
H320     H      0.393400000000     0.060800000000     0.488400000000     0          
C321     C      0.408700000000     0.134050000000     0.591470000000     0          
H322     H      0.408900000000     0.140500000000     0.568500000000     0          
O323     O      0.875430000000     0.464370000000     0.423550000000     0          
C324     C      0.885500000000     0.513490000000     0.470540000000     0          
H325     H      0.883500000000     0.519600000000     0.447600000000     0          
C326     C      0.891210000000     0.537930000000     0.494930000000     0          
H327     H      0.893400000000     0.560800000000     0.488400000000     0          
C328     C      0.908700000000     0.634050000000     0.591470000000     0          
H329     H      0.908900000000     0.640500000000     0.568500000000     0          
O330     O      0.875430000000     0.964370000000     0.923550000000     0          
C331     C      0.885500000000     0.013490000000     0.970540000000     0          
H332     H      0.883500000000     0.019600000000     0.947600000000     0          
C333     C      0.891210000000     0.037930000000     0.994930000000     0          
H334     H      0.893400000000     0.060800000000     0.988400000000     0          
C335     C      0.908700000000     0.134050000000     0.091470000000     0          
H336     H      0.908900000000     0.140500000000     0.068500000000     0          
O337     O      0.124570000000     0.673550000000     0.714370000000     0          
C338     C      0.114500000000     0.720540000000     0.763490000000     0          
H339     H      0.116500000000     0.697600000000     0.769600000000     0          
C340     C      0.108790000000     0.744930000000     0.787930000000     0          
H341     H      0.106600000000     0.738400000000     0.810800000000     0          
C342     C      0.091300000000     0.841470000000     0.884050000000     0          
H343     H      0.091100000000     0.818500000000     0.890500000000     0          
O344     O      0.124570000000     0.173550000000     0.214370000000     0          
C345     C      0.114500000000     0.220540000000     0.263490000000     0          
H346     H      0.116500000000     0.197600000000     0.269600000000     0          
C347     C      0.108790000000     0.244930000000     0.287930000000     0          
H348     H      0.106600000000     0.238400000000     0.310800000000     0          
C349     C      0.091300000000     0.341470000000     0.384050000000     0          
H350     H      0.091100000000     0.318500000000     0.390500000000     0          
O351     O      0.624570000000     0.673550000000     0.214370000000     0          
C352     C      0.614500000000     0.720540000000     0.263490000000     0          
H353     H      0.616500000000     0.697600000000     0.269600000000     0          
C354     C      0.608790000000     0.744930000000     0.287930000000     0          
H355     H      0.606600000000     0.738400000000     0.310800000000     0          
C356     C      0.591300000000     0.841470000000     0.384050000000     0          
H357     H      0.591100000000     0.818500000000     0.390500000000     0          
O358     O      0.624570000000     0.173550000000     0.714370000000     0          
C359     C      0.614500000000     0.220540000000     0.763490000000     0          
H360     H      0.616500000000     0.197600000000     0.769600000000     0          
C361     C      0.608790000000     0.244930000000     0.787930000000     0          
H362     H      0.606600000000     0.238400000000     0.810800000000     0          
C363     C      0.591300000000     0.341470000000     0.884050000000     0          
H364     H      0.591100000000     0.318500000000     0.890500000000     0          
O365     O      0.625430000000     0.576450000000     0.214370000000     0          
C366     C      0.635500000000     0.529460000000     0.263490000000     0          
H367     H      0.633500000000     0.552400000000     0.269600000000     0          
C368     C      0.641210000000     0.505070000000     0.287930000000     0          
H369     H      0.643400000000     0.511600000000     0.310800000000     0          
C370     C      0.658700000000     0.408530000000     0.384050000000     0          
H371     H      0.658900000000     0.431500000000     0.390500000000     0          
O372     O      0.625430000000     0.076450000000     0.714370000000     0          
C373     C      0.635500000000     0.029460000000     0.763490000000     0          
H374     H      0.633500000000     0.052400000000     0.769600000000     0          
C375     C      0.641210000000     0.005070000000     0.787930000000     0          
H376     H      0.643400000000     0.011600000000     0.810800000000     0          
C377     C      0.658700000000     0.908530000000     0.884050000000     0          
H378     H      0.658900000000     0.931500000000     0.890500000000     0          
O379     O      0.125430000000     0.576450000000     0.714370000000     0          
C380     C      0.135500000000     0.529460000000     0.763490000000     0          
H381     H      0.133500000000     0.552400000000     0.769600000000     0          
C382     C      0.141210000000     0.505070000000     0.787930000000     0          
H383     H      0.143400000000     0.511600000000     0.810800000000     0          
C384     C      0.158700000000     0.408530000000     0.884050000000     0          
H385     H      0.158900000000     0.431500000000     0.890500000000     0          
O386     O      0.125430000000     0.076450000000     0.214370000000     0          
C387     C      0.135500000000     0.029460000000     0.263490000000     0          
H388     H      0.133500000000     0.052400000000     0.269600000000     0          
C389     C      0.141210000000     0.005070000000     0.287930000000     0          
H390     H      0.143400000000     0.011600000000     0.310800000000     0          
C391     C      0.158700000000     0.908530000000     0.384050000000     0          
H392     H      0.158900000000     0.931500000000     0.390500000000     0          
O393     O      0.624570000000     0.076450000000     0.535630000000     0          
C394     C      0.614500000000     0.029460000000     0.486510000000     0          
H395     H      0.616500000000     0.052400000000     0.480400000000     0          
C396     C      0.608790000000     0.005070000000     0.462070000000     0          
H397     H      0.606600000000     0.011600000000     0.439200000000     0          
C398     C      0.591300000000     0.908530000000     0.365950000000     0          
H399     H      0.591100000000     0.931500000000     0.359500000000     0          
O400     O      0.624570000000     0.576450000000     0.035630000000     0          
C401     C      0.614500000000     0.529460000000     0.986510000000     0          
H402     H      0.616500000000     0.552400000000     0.980400000000     0          
C403     C      0.608790000000     0.505070000000     0.962070000000     0          
H404     H      0.606600000000     0.511600000000     0.939200000000     0          
C405     C      0.591300000000     0.408530000000     0.865950000000     0          
H406     H      0.591100000000     0.431500000000     0.859500000000     0          
O407     O      0.124570000000     0.076450000000     0.035630000000     0          
C408     C      0.114500000000     0.029460000000     0.986510000000     0          
H409     H      0.116500000000     0.052400000000     0.980400000000     0          
C410     C      0.108790000000     0.005070000000     0.962070000000     0          
H411     H      0.106600000000     0.011600000000     0.939200000000     0          
C412     C      0.091300000000     0.908530000000     0.865950000000     0          
H413     H      0.091100000000     0.931500000000     0.859500000000     0          
O414     O      0.124570000000     0.576450000000     0.535630000000     0          
C415     C      0.114500000000     0.529460000000     0.486510000000     0          
H416     H      0.116500000000     0.552400000000     0.480400000000     0          
C417     C      0.108790000000     0.505070000000     0.462070000000     0          
H418     H      0.106600000000     0.511600000000     0.439200000000     0          
C419     C      0.091300000000     0.408530000000     0.365950000000     0          
H420     H      0.091100000000     0.431500000000     0.359500000000     0          
O421     O      0.125430000000     0.173550000000     0.035630000000     0          
C422     C      0.135500000000     0.220540000000     0.986510000000     0          
H423     H      0.133500000000     0.197600000000     0.980400000000     0          
C424     C      0.141210000000     0.244930000000     0.962070000000     0          
H425     H      0.143400000000     0.238400000000     0.939200000000     0          
C426     C      0.158700000000     0.341470000000     0.865950000000     0          
H427     H      0.158900000000     0.318500000000     0.859500000000     0          
O428     O      0.125430000000     0.673550000000     0.535630000000     0          
C429     C      0.135500000000     0.720540000000     0.486510000000     0          
H430     H      0.133500000000     0.697600000000     0.480400000000     0          
C431     C      0.141210000000     0.744930000000     0.462070000000     0          
H432     H      0.143400000000     0.738400000000     0.439200000000     0          
C433     C      0.158700000000     0.841470000000     0.365950000000     0          
H434     H      0.158900000000     0.818500000000     0.359500000000     0          
O435     O      0.625430000000     0.173550000000     0.535630000000     0          
C436     C      0.635500000000     0.220540000000     0.486510000000     0          
H437     H      0.633500000000     0.197600000000     0.480400000000     0          
C438     C      0.641210000000     0.244930000000     0.462070000000     0          
H439     H      0.643400000000     0.238400000000     0.439200000000     0          
C440     C      0.658700000000     0.341470000000     0.365950000000     0          
H441     H      0.658900000000     0.318500000000     0.359500000000     0          
O442     O      0.625430000000     0.673550000000     0.035630000000     0          
C443     C      0.635500000000     0.720540000000     0.986510000000     0          
H444     H      0.633500000000     0.697600000000     0.980400000000     0          
C445     C      0.641210000000     0.744930000000     0.962070000000     0          
H446     H      0.643400000000     0.738400000000     0.939200000000     0          
C447     C      0.658700000000     0.841470000000     0.865950000000     0          
H448     H      0.658900000000     0.818500000000     0.859500000000     0          
O449     O      0.173550000000     0.035630000000     0.125430000000     0          
C450     C      0.220540000000     0.986510000000     0.135500000000     0          
H451     H      0.197600000000     0.980400000000     0.133500000000     0          
C452     C      0.244930000000     0.962070000000     0.141210000000     0          
H453     H      0.238400000000     0.939200000000     0.143400000000     0          
C454     C      0.341470000000     0.865950000000     0.158700000000     0          
H455     H      0.318500000000     0.859500000000     0.158900000000     0          
O456     O      0.173550000000     0.535630000000     0.625430000000     0          
C457     C      0.220540000000     0.486510000000     0.635500000000     0          
H458     H      0.197600000000     0.480400000000     0.633500000000     0          
C459     C      0.244930000000     0.462070000000     0.641210000000     0          
H460     H      0.238400000000     0.439200000000     0.643400000000     0          
C461     C      0.341470000000     0.365950000000     0.658700000000     0          
H462     H      0.318500000000     0.359500000000     0.658900000000     0          
O463     O      0.673550000000     0.035630000000     0.625430000000     0          
C464     C      0.720540000000     0.986510000000     0.635500000000     0          
H465     H      0.697600000000     0.980400000000     0.633500000000     0          
C466     C      0.744930000000     0.962070000000     0.641210000000     0          
H467     H      0.738400000000     0.939200000000     0.643400000000     0          
C468     C      0.841470000000     0.865950000000     0.658700000000     0          
H469     H      0.818500000000     0.859500000000     0.658900000000     0          
O470     O      0.673550000000     0.535630000000     0.125430000000     0          
C471     C      0.720540000000     0.486510000000     0.135500000000     0          
H472     H      0.697600000000     0.480400000000     0.133500000000     0          
C473     C      0.744930000000     0.462070000000     0.141210000000     0          
H474     H      0.738400000000     0.439200000000     0.143400000000     0          
C475     C      0.841470000000     0.365950000000     0.158700000000     0          
H476     H      0.818500000000     0.359500000000     0.158900000000     0          
O477     O      0.076450000000     0.535630000000     0.624570000000     0          
C478     C      0.029460000000     0.486510000000     0.614500000000     0          
H479     H      0.052400000000     0.480400000000     0.616500000000     0          
C480     C      0.005070000000     0.462070000000     0.608790000000     0          
H481     H      0.011600000000     0.439200000000     0.606600000000     0          
C482     C      0.908530000000     0.365950000000     0.591300000000     0          
H483     H      0.931500000000     0.359500000000     0.591100000000     0          
O484     O      0.076450000000     0.035630000000     0.124570000000     0          
C485     C      0.029460000000     0.986510000000     0.114500000000     0          
H486     H      0.052400000000     0.980400000000     0.116500000000     0          
C487     C      0.005070000000     0.962070000000     0.108790000000     0          
H488     H      0.011600000000     0.939200000000     0.106600000000     0          
C489     C      0.908530000000     0.865950000000     0.091300000000     0          
H490     H      0.931500000000     0.859500000000     0.091100000000     0          
O491     O      0.576450000000     0.535630000000     0.124570000000     0          
C492     C      0.529460000000     0.486510000000     0.114500000000     0          
H493     H      0.552400000000     0.480400000000     0.116500000000     0          
C494     C      0.505070000000     0.462070000000     0.108790000000     0          
H495     H      0.511600000000     0.439200000000     0.106600000000     0          
C496     C      0.408530000000     0.365950000000     0.091300000000     0          
H497     H      0.431500000000     0.359500000000     0.091100000000     0          
O498     O      0.576450000000     0.035630000000     0.624570000000     0          
C499     C      0.529460000000     0.986510000000     0.614500000000     0          
H500     H      0.552400000000     0.980400000000     0.616500000000     0          
C501     C      0.505070000000     0.962070000000     0.608790000000     0          
H502     H      0.511600000000     0.939200000000     0.606600000000     0          
C503     C      0.408530000000     0.865950000000     0.591300000000     0          
H504     H      0.431500000000     0.859500000000     0.591100000000     0          
O505     O      0.576450000000     0.214370000000     0.625430000000     0          
C506     C      0.529460000000     0.263490000000     0.635500000000     0          
H507     H      0.552400000000     0.269600000000     0.633500000000     0          
C508     C      0.505070000000     0.287930000000     0.641210000000     0          
H509     H      0.511600000000     0.310800000000     0.643400000000     0          
C510     C      0.408530000000     0.384050000000     0.658700000000     0          
H511     H      0.431500000000     0.390500000000     0.658900000000     0          
O512     O      0.576450000000     0.714370000000     0.125430000000     0          
C513     C      0.529460000000     0.763490000000     0.135500000000     0          
H514     H      0.552400000000     0.769600000000     0.133500000000     0          
C515     C      0.505070000000     0.787930000000     0.141210000000     0          
H516     H      0.511600000000     0.810800000000     0.143400000000     0          
C517     C      0.408530000000     0.884050000000     0.158700000000     0          
H518     H      0.431500000000     0.890500000000     0.158900000000     0          
O519     O      0.076450000000     0.214370000000     0.125430000000     0          
C520     C      0.029460000000     0.263490000000     0.135500000000     0          
H521     H      0.052400000000     0.269600000000     0.133500000000     0          
C522     C      0.005070000000     0.287930000000     0.141210000000     0          
H523     H      0.011600000000     0.310800000000     0.143400000000     0          
C524     C      0.908530000000     0.384050000000     0.158700000000     0          
H525     H      0.931500000000     0.390500000000     0.158900000000     0          
O526     O      0.076450000000     0.714370000000     0.625430000000     0          
C527     C      0.029460000000     0.763490000000     0.635500000000     0          
H528     H      0.052400000000     0.769600000000     0.633500000000     0          
C529     C      0.005070000000     0.787930000000     0.641210000000     0          
H530     H      0.011600000000     0.810800000000     0.643400000000     0          
C531     C      0.908530000000     0.884050000000     0.658700000000     0          
H532     H      0.931500000000     0.890500000000     0.658900000000     0          
O533     O      0.673550000000     0.714370000000     0.124570000000     0          
C534     C      0.720540000000     0.763490000000     0.114500000000     0          
H535     H      0.697600000000     0.769600000000     0.116500000000     0          
C536     C      0.744930000000     0.787930000000     0.108790000000     0          
H537     H      0.738400000000     0.810800000000     0.106600000000     0          
C538     C      0.841470000000     0.884050000000     0.091300000000     0          
H539     H      0.818500000000     0.890500000000     0.091100000000     0          
O540     O      0.673550000000     0.214370000000     0.624570000000     0          
C541     C      0.720540000000     0.263490000000     0.614500000000     0          
H542     H      0.697600000000     0.269600000000     0.616500000000     0          
C543     C      0.744930000000     0.287930000000     0.608790000000     0          
H544     H      0.738400000000     0.310800000000     0.606600000000     0          
C545     C      0.841470000000     0.384050000000     0.591300000000     0          
H546     H      0.818500000000     0.390500000000     0.591100000000     0          
O547     O      0.173550000000     0.714370000000     0.624570000000     0          
C548     C      0.220540000000     0.763490000000     0.614500000000     0          
H549     H      0.197600000000     0.769600000000     0.616500000000     0          
C550     C      0.244930000000     0.787930000000     0.608790000000     0          
H551     H      0.238400000000     0.810800000000     0.606600000000     0          
C552     C      0.341470000000     0.884050000000     0.591300000000     0          
H553     H      0.318500000000     0.890500000000     0.591100000000     0          
O554     O      0.173550000000     0.214370000000     0.124570000000     0          
C555     C      0.220540000000     0.263490000000     0.114500000000     0          
H556     H      0.197600000000     0.269600000000     0.116500000000     0          
C557     C      0.244930000000     0.287930000000     0.108790000000     0          
H558     H      0.238400000000     0.310800000000     0.106600000000     0          
C559     C      0.341470000000     0.384050000000     0.091300000000     0          
H560     H      0.318500000000     0.390500000000     0.091100000000     0          
O561     O      0.535630000000     0.624570000000     0.076450000000     0          
C562     C      0.486510000000     0.614500000000     0.029460000000     0          
H563     H      0.480400000000     0.616500000000     0.052400000000     0          
C564     C      0.462070000000     0.608790000000     0.005070000000     0          
H565     H      0.439200000000     0.606600000000     0.011600000000     0          
C566     C      0.365950000000     0.591300000000     0.908530000000     0          
H567     H      0.359500000000     0.591100000000     0.931500000000     0          
O568     O      0.535630000000     0.124570000000     0.576450000000     0          
C569     C      0.486510000000     0.114500000000     0.529460000000     0          
H570     H      0.480400000000     0.116500000000     0.552400000000     0          
C571     C      0.462070000000     0.108790000000     0.505070000000     0          
H572     H      0.439200000000     0.106600000000     0.511600000000     0          
C573     C      0.365950000000     0.091300000000     0.408530000000     0          
H574     H      0.359500000000     0.091100000000     0.431500000000     0          
O575     O      0.035630000000     0.624570000000     0.576450000000     0          
C576     C      0.986510000000     0.614500000000     0.529460000000     0          
H577     H      0.980400000000     0.616500000000     0.552400000000     0          
C578     C      0.962070000000     0.608790000000     0.505070000000     0          
H579     H      0.939200000000     0.606600000000     0.511600000000     0          
C580     C      0.865950000000     0.591300000000     0.408530000000     0          
H581     H      0.859500000000     0.591100000000     0.431500000000     0          
O582     O      0.035630000000     0.124570000000     0.076450000000     0          
C583     C      0.986510000000     0.114500000000     0.029460000000     0          
H584     H      0.980400000000     0.116500000000     0.052400000000     0          
C585     C      0.962070000000     0.108790000000     0.005070000000     0          
H586     H      0.939200000000     0.106600000000     0.011600000000     0          
C587     C      0.865950000000     0.091300000000     0.908530000000     0          
H588     H      0.859500000000     0.091100000000     0.931500000000     0          
O589     O      0.035630000000     0.125430000000     0.173550000000     0          
C590     C      0.986510000000     0.135500000000     0.220540000000     0          
H591     H      0.980400000000     0.133500000000     0.197600000000     0          
C592     C      0.962070000000     0.141210000000     0.244930000000     0          
H593     H      0.939200000000     0.143400000000     0.238400000000     0          
C594     C      0.865950000000     0.158700000000     0.341470000000     0          
H595     H      0.859500000000     0.158900000000     0.318500000000     0          
O596     O      0.035630000000     0.625430000000     0.673550000000     0          
C597     C      0.986510000000     0.635500000000     0.720540000000     0          
H598     H      0.980400000000     0.633500000000     0.697600000000     0          
C599     C      0.962070000000     0.641210000000     0.744930000000     0          
H600     H      0.939200000000     0.643400000000     0.738400000000     0          
C601     C      0.865950000000     0.658700000000     0.841470000000     0          
H602     H      0.859500000000     0.658900000000     0.818500000000     0          
O603     O      0.535630000000     0.125430000000     0.673550000000     0          
C604     C      0.486510000000     0.135500000000     0.720540000000     0          
H605     H      0.480400000000     0.133500000000     0.697600000000     0          
C606     C      0.462070000000     0.141210000000     0.744930000000     0          
H607     H      0.439200000000     0.143400000000     0.738400000000     0          
C608     C      0.365950000000     0.158700000000     0.841470000000     0          
H609     H      0.359500000000     0.158900000000     0.818500000000     0          
O610     O      0.535630000000     0.625430000000     0.173550000000     0          
C611     C      0.486510000000     0.635500000000     0.220540000000     0          
H612     H      0.480400000000     0.633500000000     0.197600000000     0          
C613     C      0.462070000000     0.641210000000     0.244930000000     0          
H614     H      0.439200000000     0.643400000000     0.238400000000     0          
C615     C      0.365950000000     0.658700000000     0.341470000000     0          
H616     H      0.359500000000     0.658900000000     0.318500000000     0          
O617     O      0.714370000000     0.124570000000     0.673550000000     0          
C618     C      0.763490000000     0.114500000000     0.720540000000     0          
H619     H      0.769600000000     0.116500000000     0.697600000000     0          
C620     C      0.787930000000     0.108790000000     0.744930000000     0          
H621     H      0.810800000000     0.106600000000     0.738400000000     0          
C622     C      0.884050000000     0.091300000000     0.841470000000     0          
H623     H      0.890500000000     0.091100000000     0.818500000000     0          
O624     O      0.714370000000     0.624570000000     0.173550000000     0          
C625     C      0.763490000000     0.614500000000     0.220540000000     0          
H626     H      0.769600000000     0.616500000000     0.197600000000     0          
C627     C      0.787930000000     0.608790000000     0.244930000000     0          
H628     H      0.810800000000     0.606600000000     0.238400000000     0          
C629     C      0.884050000000     0.591300000000     0.341470000000     0          
H630     H      0.890500000000     0.591100000000     0.318500000000     0          
O631     O      0.214370000000     0.124570000000     0.173550000000     0          
C632     C      0.263490000000     0.114500000000     0.220540000000     0          
H633     H      0.269600000000     0.116500000000     0.197600000000     0          
C634     C      0.287930000000     0.108790000000     0.244930000000     0          
H635     H      0.310800000000     0.106600000000     0.238400000000     0          
C636     C      0.384050000000     0.091300000000     0.341470000000     0          
H637     H      0.390500000000     0.091100000000     0.318500000000     0          
O638     O      0.214370000000     0.624570000000     0.673550000000     0          
C639     C      0.263490000000     0.614500000000     0.720540000000     0          
H640     H      0.269600000000     0.616500000000     0.697600000000     0          
C641     C      0.287930000000     0.608790000000     0.744930000000     0          
H642     H      0.310800000000     0.606600000000     0.738400000000     0          
C643     C      0.384050000000     0.591300000000     0.841470000000     0          
H644     H      0.390500000000     0.591100000000     0.818500000000     0          
O645     O      0.214370000000     0.625430000000     0.576450000000     0          
C646     C      0.263490000000     0.635500000000     0.529460000000     0          
H647     H      0.269600000000     0.633500000000     0.552400000000     0          
C648     C      0.287930000000     0.641210000000     0.505070000000     0          
H649     H      0.310800000000     0.643400000000     0.511600000000     0          
C650     C      0.384050000000     0.658700000000     0.408530000000     0          
H651     H      0.390500000000     0.658900000000     0.431500000000     0          
O652     O      0.214370000000     0.125430000000     0.076450000000     0          
C653     C      0.263490000000     0.135500000000     0.029460000000     0          
H654     H      0.269600000000     0.133500000000     0.052400000000     0          
C655     C      0.287930000000     0.141210000000     0.005070000000     0          
H656     H      0.310800000000     0.143400000000     0.011600000000     0          
C657     C      0.384050000000     0.158700000000     0.908530000000     0          
H658     H      0.390500000000     0.158900000000     0.931500000000     0          
O659     O      0.714370000000     0.625430000000     0.076450000000     0          
C660     C      0.763490000000     0.635500000000     0.029460000000     0          
H661     H      0.769600000000     0.633500000000     0.052400000000     0          
C662     C      0.787930000000     0.641210000000     0.005070000000     0          
H663     H      0.810800000000     0.643400000000     0.011600000000     0          
C664     C      0.884050000000     0.658700000000     0.908530000000     0          
H665     H      0.890500000000     0.658900000000     0.931500000000     0          
O666     O      0.714370000000     0.125430000000     0.576450000000     0          
C667     C      0.763490000000     0.135500000000     0.529460000000     0          
H668     H      0.769600000000     0.133500000000     0.552400000000     0          
C669     C      0.787930000000     0.141210000000     0.505070000000     0          
H670     H      0.810800000000     0.143400000000     0.511600000000     0          
C671     C      0.884050000000     0.158700000000     0.408530000000     0          
H672     H      0.890500000000     0.158900000000     0.431500000000     0          
O673     O      0.576450000000     0.625430000000     0.214370000000     0          
C674     C      0.529460000000     0.635500000000     0.263490000000     0          
H675     H      0.552400000000     0.633500000000     0.269600000000     0          
C676     C      0.505070000000     0.641210000000     0.287930000000     0          
H677     H      0.511600000000     0.643400000000     0.310800000000     0          
C678     C      0.408530000000     0.658700000000     0.384050000000     0          
H679     H      0.431500000000     0.658900000000     0.390500000000     0          
O680     O      0.576450000000     0.125430000000     0.714370000000     0          
C681     C      0.529460000000     0.135500000000     0.763490000000     0          
H682     H      0.552400000000     0.133500000000     0.769600000000     0          
C683     C      0.505070000000     0.141210000000     0.787930000000     0          
H684     H      0.511600000000     0.143400000000     0.810800000000     0          
C685     C      0.408530000000     0.158700000000     0.884050000000     0          
H686     H      0.431500000000     0.158900000000     0.890500000000     0          
O687     O      0.076450000000     0.625430000000     0.714370000000     0          
C688     C      0.029460000000     0.635500000000     0.763490000000     0          
H689     H      0.052400000000     0.633500000000     0.769600000000     0          
C690     C      0.005070000000     0.641210000000     0.787930000000     0          
H691     H      0.011600000000     0.643400000000     0.810800000000     0          
C692     C      0.908530000000     0.658700000000     0.884050000000     0          
H693     H      0.931500000000     0.658900000000     0.890500000000     0          
O694     O      0.076450000000     0.125430000000     0.214370000000     0          
C695     C      0.029460000000     0.135500000000     0.263490000000     0          
H696     H      0.052400000000     0.133500000000     0.269600000000     0          
C697     C      0.005070000000     0.141210000000     0.287930000000     0          
H698     H      0.011600000000     0.143400000000     0.310800000000     0          
C699     C      0.908530000000     0.158700000000     0.384050000000     0          
H700     H      0.931500000000     0.158900000000     0.390500000000     0          
O701     O      0.673550000000     0.124570000000     0.714370000000     0          
C702     C      0.720540000000     0.114500000000     0.763490000000     0          
H703     H      0.697600000000     0.116500000000     0.769600000000     0          
C704     C      0.744930000000     0.108790000000     0.787930000000     0          
H705     H      0.738400000000     0.106600000000     0.810800000000     0          
C706     C      0.841470000000     0.091300000000     0.884050000000     0          
H707     H      0.818500000000     0.091100000000     0.890500000000     0          
O708     O      0.673550000000     0.624570000000     0.214370000000     0          
C709     C      0.720540000000     0.614500000000     0.263490000000     0          
H710     H      0.697600000000     0.616500000000     0.269600000000     0          
C711     C      0.744930000000     0.608790000000     0.287930000000     0          
H712     H      0.738400000000     0.606600000000     0.310800000000     0          
C713     C      0.841470000000     0.591300000000     0.384050000000     0          
H714     H      0.818500000000     0.591100000000     0.390500000000     0          
O715     O      0.173550000000     0.124570000000     0.214370000000     0          
C716     C      0.220540000000     0.114500000000     0.263490000000     0          
H717     H      0.197600000000     0.116500000000     0.269600000000     0          
C718     C      0.244930000000     0.108790000000     0.287930000000     0          
H719     H      0.238400000000     0.106600000000     0.310800000000     0          
C720     C      0.341470000000     0.091300000000     0.384050000000     0          
H721     H      0.318500000000     0.091100000000     0.390500000000     0          
O722     O      0.173550000000     0.624570000000     0.714370000000     0          
C723     C      0.220540000000     0.614500000000     0.763490000000     0          
H724     H      0.197600000000     0.616500000000     0.769600000000     0          
C725     C      0.244930000000     0.608790000000     0.787930000000     0          
H726     H      0.238400000000     0.606600000000     0.810800000000     0          
C727     C      0.341470000000     0.591300000000     0.884050000000     0          
H728     H      0.318500000000     0.591100000000     0.890500000000     0          
O729     O      0.173550000000     0.125430000000     0.035630000000     0          
C730     C      0.220540000000     0.135500000000     0.986510000000     0          
H731     H      0.197600000000     0.133500000000     0.980400000000     0          
C732     C      0.244930000000     0.141210000000     0.962070000000     0          
H733     H      0.238400000000     0.143400000000     0.939200000000     0          
C734     C      0.341470000000     0.158700000000     0.865950000000     0          
H735     H      0.318500000000     0.158900000000     0.859500000000     0          
O736     O      0.173550000000     0.625430000000     0.535630000000     0          
C737     C      0.220540000000     0.635500000000     0.486510000000     0          
H738     H      0.197600000000     0.633500000000     0.480400000000     0          
C739     C      0.244930000000     0.641210000000     0.462070000000     0          
H740     H      0.238400000000     0.643400000000     0.439200000000     0          
C741     C      0.341470000000     0.658700000000     0.365950000000     0          
H742     H      0.318500000000     0.658900000000     0.359500000000     0          
O743     O      0.673550000000     0.125430000000     0.535630000000     0          
C744     C      0.720540000000     0.135500000000     0.486510000000     0          
H745     H      0.697600000000     0.133500000000     0.480400000000     0          
C746     C      0.744930000000     0.141210000000     0.462070000000     0          
H747     H      0.738400000000     0.143400000000     0.439200000000     0          
C748     C      0.841470000000     0.158700000000     0.365950000000     0          
H749     H      0.818500000000     0.158900000000     0.359500000000     0          
O750     O      0.673550000000     0.625430000000     0.035630000000     0          
C751     C      0.720540000000     0.635500000000     0.986510000000     0          
H752     H      0.697600000000     0.633500000000     0.980400000000     0          
C753     C      0.744930000000     0.641210000000     0.962070000000     0          
H754     H      0.738400000000     0.643400000000     0.939200000000     0          
C755     C      0.841470000000     0.658700000000     0.865950000000     0          
H756     H      0.818500000000     0.658900000000     0.859500000000     0          
O757     O      0.076450000000     0.624570000000     0.535630000000     0          
C758     C      0.029460000000     0.614500000000     0.486510000000     0          
H759     H      0.052400000000     0.616500000000     0.480400000000     0          
C760     C      0.005070000000     0.608790000000     0.462070000000     0          
H761     H      0.011600000000     0.606600000000     0.439200000000     0          
C762     C      0.908530000000     0.591300000000     0.365950000000     0          
H763     H      0.931500000000     0.591100000000     0.359500000000     0          
O764     O      0.076450000000     0.124570000000     0.035630000000     0          
C765     C      0.029460000000     0.114500000000     0.986510000000     0          
H766     H      0.052400000000     0.116500000000     0.980400000000     0          
C767     C      0.005070000000     0.108790000000     0.962070000000     0          
H768     H      0.011600000000     0.106600000000     0.939200000000     0          
C769     C      0.908530000000     0.091300000000     0.865950000000     0          
H770     H      0.931500000000     0.091100000000     0.859500000000     0          
O771     O      0.576450000000     0.624570000000     0.035630000000     0          
C772     C      0.529460000000     0.614500000000     0.986510000000     0          
H773     H      0.552400000000     0.616500000000     0.980400000000     0          
C774     C      0.505070000000     0.608790000000     0.962070000000     0          
H775     H      0.511600000000     0.606600000000     0.939200000000     0          
C776     C      0.408530000000     0.591300000000     0.865950000000     0          
H777     H      0.431500000000     0.591100000000     0.859500000000     0          
O778     O      0.576450000000     0.124570000000     0.535630000000     0          
C779     C      0.529460000000     0.114500000000     0.486510000000     0          
H780     H      0.552400000000     0.116500000000     0.480400000000     0          
C781     C      0.505070000000     0.108790000000     0.462070000000     0          
H782     H      0.511600000000     0.106600000000     0.439200000000     0          
C783     C      0.408530000000     0.091300000000     0.365950000000     0          
H784     H      0.431500000000     0.091100000000     0.359500000000     0          
O785     O      0.214370000000     0.576450000000     0.625430000000     0          
C786     C      0.263490000000     0.529460000000     0.635500000000     0          
H787     H      0.269600000000     0.552400000000     0.633500000000     0          
C788     C      0.287930000000     0.505070000000     0.641210000000     0          
H789     H      0.310800000000     0.511600000000     0.643400000000     0          
C790     C      0.384050000000     0.408530000000     0.658700000000     0          
H791     H      0.390500000000     0.431500000000     0.658900000000     0          
O792     O      0.214370000000     0.076450000000     0.125430000000     0          
C793     C      0.263490000000     0.029460000000     0.135500000000     0          
H794     H      0.269600000000     0.052400000000     0.133500000000     0          
C795     C      0.287930000000     0.005070000000     0.141210000000     0          
H796     H      0.310800000000     0.011600000000     0.143400000000     0          
C797     C      0.384050000000     0.908530000000     0.158700000000     0          
H798     H      0.390500000000     0.931500000000     0.158900000000     0          
O799     O      0.714370000000     0.576450000000     0.125430000000     0          
C800     C      0.763490000000     0.529460000000     0.135500000000     0          
H801     H      0.769600000000     0.552400000000     0.133500000000     0          
C802     C      0.787930000000     0.505070000000     0.141210000000     0          
H803     H      0.810800000000     0.511600000000     0.143400000000     0          
C804     C      0.884050000000     0.408530000000     0.158700000000     0          
H805     H      0.890500000000     0.431500000000     0.158900000000     0          
O806     O      0.714370000000     0.076450000000     0.625430000000     0          
C807     C      0.763490000000     0.029460000000     0.635500000000     0          
H808     H      0.769600000000     0.052400000000     0.633500000000     0          
C809     C      0.787930000000     0.005070000000     0.641210000000     0          
H810     H      0.810800000000     0.011600000000     0.643400000000     0          
C811     C      0.884050000000     0.908530000000     0.658700000000     0          
H812     H      0.890500000000     0.931500000000     0.658900000000     0          
O813     O      0.714370000000     0.673550000000     0.124570000000     0          
C814     C      0.763490000000     0.720540000000     0.114500000000     0          
H815     H      0.769600000000     0.697600000000     0.116500000000     0          
C816     C      0.787930000000     0.744930000000     0.108790000000     0          
H817     H      0.810800000000     0.738400000000     0.106600000000     0          
C818     C      0.884050000000     0.841470000000     0.091300000000     0          
H819     H      0.890500000000     0.818500000000     0.091100000000     0          
O820     O      0.714370000000     0.173550000000     0.624570000000     0          
C821     C      0.763490000000     0.220540000000     0.614500000000     0          
H822     H      0.769600000000     0.197600000000     0.616500000000     0          
C823     C      0.787930000000     0.244930000000     0.608790000000     0          
H824     H      0.810800000000     0.238400000000     0.606600000000     0          
C825     C      0.884050000000     0.341470000000     0.591300000000     0          
H826     H      0.890500000000     0.318500000000     0.591100000000     0          
O827     O      0.214370000000     0.673550000000     0.624570000000     0          
C828     C      0.263490000000     0.720540000000     0.614500000000     0          
H829     H      0.269600000000     0.697600000000     0.616500000000     0          
C830     C      0.287930000000     0.744930000000     0.608790000000     0          
H831     H      0.310800000000     0.738400000000     0.606600000000     0          
C832     C      0.384050000000     0.841470000000     0.591300000000     0          
H833     H      0.390500000000     0.818500000000     0.591100000000     0          
O834     O      0.214370000000     0.173550000000     0.124570000000     0          
C835     C      0.263490000000     0.220540000000     0.114500000000     0          
H836     H      0.269600000000     0.197600000000     0.116500000000     0          
C837     C      0.287930000000     0.244930000000     0.108790000000     0          
H838     H      0.310800000000     0.238400000000     0.106600000000     0          
C839     C      0.384050000000     0.341470000000     0.091300000000     0          
H840     H      0.390500000000     0.318500000000     0.091100000000     0          
O841     O      0.035630000000     0.173550000000     0.125430000000     0          
C842     C      0.986510000000     0.220540000000     0.135500000000     0          
H843     H      0.980400000000     0.197600000000     0.133500000000     0          
C844     C      0.962070000000     0.244930000000     0.141210000000     0          
H845     H      0.939200000000     0.238400000000     0.143400000000     0          
C846     C      0.865950000000     0.341470000000     0.158700000000     0          
H847     H      0.859500000000     0.318500000000     0.158900000000     0          
O848     O      0.035630000000     0.673550000000     0.625430000000     0          
C849     C      0.986510000000     0.720540000000     0.635500000000     0          
H850     H      0.980400000000     0.697600000000     0.633500000000     0          
C851     C      0.962070000000     0.744930000000     0.641210000000     0          
H852     H      0.939200000000     0.738400000000     0.643400000000     0          
C853     C      0.865950000000     0.841470000000     0.658700000000     0          
H854     H      0.859500000000     0.818500000000     0.658900000000     0          
O855     O      0.535630000000     0.173550000000     0.625430000000     0          
C856     C      0.486510000000     0.220540000000     0.635500000000     0          
H857     H      0.480400000000     0.197600000000     0.633500000000     0          
C858     C      0.462070000000     0.244930000000     0.641210000000     0          
H859     H      0.439200000000     0.238400000000     0.643400000000     0          
C860     C      0.365950000000     0.341470000000     0.658700000000     0          
H861     H      0.359500000000     0.318500000000     0.658900000000     0          
O862     O      0.535630000000     0.673550000000     0.125430000000     0          
C863     C      0.486510000000     0.720540000000     0.135500000000     0          
H864     H      0.480400000000     0.697600000000     0.133500000000     0          
C865     C      0.462070000000     0.744930000000     0.141210000000     0          
H866     H      0.439200000000     0.738400000000     0.143400000000     0          
C867     C      0.365950000000     0.841470000000     0.158700000000     0          
H868     H      0.359500000000     0.818500000000     0.158900000000     0          
O869     O      0.535630000000     0.076450000000     0.624570000000     0          
C870     C      0.486510000000     0.029460000000     0.614500000000     0          
H871     H      0.480400000000     0.052400000000     0.616500000000     0          
C872     C      0.462070000000     0.005070000000     0.608790000000     0          
H873     H      0.439200000000     0.011600000000     0.606600000000     0          
C874     C      0.365950000000     0.908530000000     0.591300000000     0          
H875     H      0.359500000000     0.931500000000     0.591100000000     0          
O876     O      0.535630000000     0.576450000000     0.124570000000     0          
C877     C      0.486510000000     0.529460000000     0.114500000000     0          
H878     H      0.480400000000     0.552400000000     0.116500000000     0          
C879     C      0.462070000000     0.505070000000     0.108790000000     0          
H880     H      0.439200000000     0.511600000000     0.106600000000     0          
C881     C      0.365950000000     0.408530000000     0.091300000000     0          
H882     H      0.359500000000     0.431500000000     0.091100000000     0          
O883     O      0.035630000000     0.076450000000     0.124570000000     0          
C884     C      0.986510000000     0.029460000000     0.114500000000     0          
H885     H      0.980400000000     0.052400000000     0.116500000000     0          
C886     C      0.962070000000     0.005070000000     0.108790000000     0          
H887     H      0.939200000000     0.011600000000     0.106600000000     0          
C888     C      0.865950000000     0.908530000000     0.091300000000     0          
H889     H      0.859500000000     0.931500000000     0.091100000000     0          
O890     O      0.035630000000     0.576450000000     0.624570000000     0          
C891     C      0.986510000000     0.529460000000     0.614500000000     0          
H892     H      0.980400000000     0.552400000000     0.616500000000     0          
C893     C      0.962070000000     0.505070000000     0.608790000000     0          
H894     H      0.939200000000     0.511600000000     0.606600000000     0          
C895     C      0.865950000000     0.408530000000     0.591300000000     0          
H896     H      0.859500000000     0.431500000000     0.591100000000     0          
O897     O      0.625430000000     0.214370000000     0.576450000000     0          
C898     C      0.635500000000     0.263490000000     0.529460000000     0          
H899     H      0.633500000000     0.269600000000     0.552400000000     0          
C900     C      0.641210000000     0.287930000000     0.505070000000     0          
H901     H      0.643400000000     0.310800000000     0.511600000000     0          
C902     C      0.658700000000     0.384050000000     0.408530000000     0          
H903     H      0.658900000000     0.390500000000     0.431500000000     0          
O904     O      0.625430000000     0.714370000000     0.076450000000     0          
C905     C      0.635500000000     0.763490000000     0.029460000000     0          
H906     H      0.633500000000     0.769600000000     0.052400000000     0          
C907     C      0.641210000000     0.787930000000     0.005070000000     0          
H908     H      0.643400000000     0.810800000000     0.011600000000     0          
C909     C      0.658700000000     0.884050000000     0.908530000000     0          
H910     H      0.658900000000     0.890500000000     0.931500000000     0          
O911     O      0.125430000000     0.214370000000     0.076450000000     0          
C912     C      0.135500000000     0.263490000000     0.029460000000     0          
H913     H      0.133500000000     0.269600000000     0.052400000000     0          
C914     C      0.141210000000     0.287930000000     0.005070000000     0          
H915     H      0.143400000000     0.310800000000     0.011600000000     0          
C916     C      0.158700000000     0.384050000000     0.908530000000     0          
H917     H      0.158900000000     0.390500000000     0.931500000000     0          
O918     O      0.125430000000     0.714370000000     0.576450000000     0          
C919     C      0.135500000000     0.763490000000     0.529460000000     0          
H920     H      0.133500000000     0.769600000000     0.552400000000     0          
C921     C      0.141210000000     0.787930000000     0.505070000000     0          
H922     H      0.143400000000     0.810800000000     0.511600000000     0          
C923     C      0.158700000000     0.884050000000     0.408530000000     0          
H924     H      0.158900000000     0.890500000000     0.431500000000     0          
O925     O      0.124570000000     0.714370000000     0.673550000000     0          
C926     C      0.114500000000     0.763490000000     0.720540000000     0          
H927     H      0.116500000000     0.769600000000     0.697600000000     0          
C928     C      0.108790000000     0.787930000000     0.744930000000     0          
H929     H      0.106600000000     0.810800000000     0.738400000000     0          
C930     C      0.091300000000     0.884050000000     0.841470000000     0          
H931     H      0.091100000000     0.890500000000     0.818500000000     0          
O932     O      0.124570000000     0.214370000000     0.173550000000     0          
C933     C      0.114500000000     0.263490000000     0.220540000000     0          
H934     H      0.116500000000     0.269600000000     0.197600000000     0          
C935     C      0.108790000000     0.287930000000     0.244930000000     0          
H936     H      0.106600000000     0.310800000000     0.238400000000     0          
C937     C      0.091300000000     0.384050000000     0.341470000000     0          
H938     H      0.091100000000     0.390500000000     0.318500000000     0          
O939     O      0.624570000000     0.714370000000     0.173550000000     0          
C940     C      0.614500000000     0.763490000000     0.220540000000     0          
H941     H      0.616500000000     0.769600000000     0.197600000000     0          
C942     C      0.608790000000     0.787930000000     0.244930000000     0          
H943     H      0.606600000000     0.810800000000     0.238400000000     0          
C944     C      0.591300000000     0.884050000000     0.341470000000     0          
H945     H      0.591100000000     0.890500000000     0.318500000000     0          
O946     O      0.624570000000     0.214370000000     0.673550000000     0          
C947     C      0.614500000000     0.263490000000     0.720540000000     0          
H948     H      0.616500000000     0.269600000000     0.697600000000     0          
C949     C      0.608790000000     0.287930000000     0.744930000000     0          
H950     H      0.606600000000     0.310800000000     0.738400000000     0          
C951     C      0.591300000000     0.384050000000     0.841470000000     0          
H952     H      0.591100000000     0.390500000000     0.818500000000     0          
O953     O      0.125430000000     0.035630000000     0.173550000000     0          
C954     C      0.135500000000     0.986510000000     0.220540000000     0          
H955     H      0.133500000000     0.980400000000     0.197600000000     0          
C956     C      0.141210000000     0.962070000000     0.244930000000     0          
H957     H      0.143400000000     0.939200000000     0.238400000000     0          
C958     C      0.158700000000     0.865950000000     0.341470000000     0          
H959     H      0.158900000000     0.859500000000     0.318500000000     0          
O960     O      0.125430000000     0.535630000000     0.673550000000     0          
C961     C      0.135500000000     0.486510000000     0.720540000000     0          
H962     H      0.133500000000     0.480400000000     0.697600000000     0          
C963     C      0.141210000000     0.462070000000     0.744930000000     0          
H964     H      0.143400000000     0.439200000000     0.738400000000     0          
C965     C      0.158700000000     0.365950000000     0.841470000000     0          
H966     H      0.158900000000     0.359500000000     0.818500000000     0          
O967     O      0.625430000000     0.035630000000     0.673550000000     0          
C968     C      0.635500000000     0.986510000000     0.720540000000     0          
H969     H      0.633500000000     0.980400000000     0.697600000000     0          
C970     C      0.641210000000     0.962070000000     0.744930000000     0          
H971     H      0.643400000000     0.939200000000     0.738400000000     0          
C972     C      0.658700000000     0.865950000000     0.841470000000     0          
H973     H      0.658900000000     0.859500000000     0.818500000000     0          
O974     O      0.625430000000     0.535630000000     0.173550000000     0          
C975     C      0.635500000000     0.486510000000     0.220540000000     0          
H976     H      0.633500000000     0.480400000000     0.197600000000     0          
C977     C      0.641210000000     0.462070000000     0.244930000000     0          
H978     H      0.643400000000     0.439200000000     0.238400000000     0          
C979     C      0.658700000000     0.365950000000     0.341470000000     0          
H980     H      0.658900000000     0.359500000000     0.318500000000     0          
O981     O      0.624570000000     0.535630000000     0.076450000000     0          
C982     C      0.614500000000     0.486510000000     0.029460000000     0          
H983     H      0.616500000000     0.480400000000     0.052400000000     0          
C984     C      0.608790000000     0.462070000000     0.005070000000     0          
H985     H      0.606600000000     0.439200000000     0.011600000000     0          
C986     C      0.591300000000     0.365950000000     0.908530000000     0          
H987     H      0.591100000000     0.359500000000     0.931500000000     0          
O988     O      0.624570000000     0.035630000000     0.576450000000     0          
C989     C      0.614500000000     0.986510000000     0.529460000000     0          
H990     H      0.616500000000     0.980400000000     0.552400000000     0          
C991     C      0.608790000000     0.962070000000     0.505070000000     0          
H992     H      0.606600000000     0.939200000000     0.511600000000     0          
C993     C      0.591300000000     0.865950000000     0.408530000000     0          
H994     H      0.591100000000     0.859500000000     0.431500000000     0          
O995     O      0.124570000000     0.535630000000     0.576450000000     0          
C996     C      0.114500000000     0.486510000000     0.529460000000     0          
H997     H      0.116500000000     0.480400000000     0.552400000000     0          
C998     C      0.108790000000     0.462070000000     0.505070000000     0          
H999     H      0.106600000000     0.439200000000     0.511600000000     0          
C1000    C      0.091300000000     0.365950000000     0.408530000000     0          
H1001    H      0.091100000000     0.359500000000     0.431500000000     0          
O1002    O      0.124570000000     0.035630000000     0.076450000000     0          
C1003    C      0.114500000000     0.986510000000     0.029460000000     0          
H1004    H      0.116500000000     0.980400000000     0.052400000000     0          
C1005    C      0.108790000000     0.962070000000     0.005070000000     0          
H1006    H      0.106600000000     0.939200000000     0.011600000000     0          
C1007    C      0.091300000000     0.865950000000     0.908530000000     0          
H1008    H      0.091100000000     0.859500000000     0.931500000000     0          
O1009    O      0.875430000000     0.326450000000     0.285630000000     0          
C1010    C      0.885500000000     0.279460000000     0.236510000000     0          
H1011    H      0.883500000000     0.302400000000     0.230400000000     0          
C1012    C      0.891210000000     0.255070000000     0.212070000000     0          
H1013    H      0.893400000000     0.261600000000     0.189200000000     0          
C1014    C      0.908700000000     0.158530000000     0.115950000000     0          
H1015    H      0.908900000000     0.181500000000     0.109500000000     0          
O1016    O      0.875430000000     0.826450000000     0.785630000000     0          
C1017    C      0.885500000000     0.779460000000     0.736510000000     0          
H1018    H      0.883500000000     0.802400000000     0.730400000000     0          
C1019    C      0.891210000000     0.755070000000     0.712070000000     0          
H1020    H      0.893400000000     0.761600000000     0.689200000000     0          
C1021    C      0.908700000000     0.658530000000     0.615950000000     0          
H1022    H      0.908900000000     0.681500000000     0.609500000000     0          
O1023    O      0.375430000000     0.326450000000     0.785630000000     0          
C1024    C      0.385500000000     0.279460000000     0.736510000000     0          
H1025    H      0.383500000000     0.302400000000     0.730400000000     0          
C1026    C      0.391210000000     0.255070000000     0.712070000000     0          
H1027    H      0.393400000000     0.261600000000     0.689200000000     0          
C1028    C      0.408700000000     0.158530000000     0.615950000000     0          
H1029    H      0.408900000000     0.181500000000     0.609500000000     0          
O1030    O      0.375430000000     0.826450000000     0.285630000000     0          
C1031    C      0.385500000000     0.779460000000     0.236510000000     0          
H1032    H      0.383500000000     0.802400000000     0.230400000000     0          
C1033    C      0.391210000000     0.755070000000     0.212070000000     0          
H1034    H      0.393400000000     0.761600000000     0.189200000000     0          
C1035    C      0.408700000000     0.658530000000     0.115950000000     0          
H1036    H      0.408900000000     0.681500000000     0.109500000000     0          
O1037    O      0.374570000000     0.423550000000     0.785630000000     0          
C1038    C      0.364500000000     0.470540000000     0.736510000000     0          
H1039    H      0.366500000000     0.447600000000     0.730400000000     0          
C1040    C      0.358790000000     0.494930000000     0.712070000000     0          
H1041    H      0.356600000000     0.488400000000     0.689200000000     0          
C1042    C      0.341300000000     0.591470000000     0.615950000000     0          
H1043    H      0.341100000000     0.568500000000     0.609500000000     0          
O1044    O      0.374570000000     0.923550000000     0.285630000000     0          
C1045    C      0.364500000000     0.970540000000     0.236510000000     0          
H1046    H      0.366500000000     0.947600000000     0.230400000000     0          
C1047    C      0.358790000000     0.994930000000     0.212070000000     0          
H1048    H      0.356600000000     0.988400000000     0.189200000000     0          
C1049    C      0.341300000000     0.091470000000     0.115950000000     0          
H1050    H      0.341100000000     0.068500000000     0.109500000000     0          
O1051    O      0.874570000000     0.423550000000     0.285630000000     0          
C1052    C      0.864500000000     0.470540000000     0.236510000000     0          
H1053    H      0.866500000000     0.447600000000     0.230400000000     0          
C1054    C      0.858790000000     0.494930000000     0.212070000000     0          
H1055    H      0.856600000000     0.488400000000     0.189200000000     0          
C1056    C      0.841300000000     0.591470000000     0.115950000000     0          
H1057    H      0.841100000000     0.568500000000     0.109500000000     0          
O1058    O      0.874570000000     0.923550000000     0.785630000000     0          
C1059    C      0.864500000000     0.970540000000     0.736510000000     0          
H1060    H      0.866500000000     0.947600000000     0.730400000000     0          
C1061    C      0.858790000000     0.994930000000     0.712070000000     0          
H1062    H      0.856600000000     0.988400000000     0.689200000000     0          
C1063    C      0.841300000000     0.091470000000     0.615950000000     0          
H1064    H      0.841100000000     0.068500000000     0.609500000000     0          
O1065    O      0.375430000000     0.923550000000     0.464370000000     0          
C1066    C      0.385500000000     0.970540000000     0.513490000000     0          
H1067    H      0.383500000000     0.947600000000     0.519600000000     0          
C1068    C      0.391210000000     0.994930000000     0.537930000000     0          
H1069    H      0.393400000000     0.988400000000     0.560800000000     0          
C1070    C      0.408700000000     0.091470000000     0.634050000000     0          
H1071    H      0.408900000000     0.068500000000     0.640500000000     0          
O1072    O      0.375430000000     0.423550000000     0.964370000000     0          
C1073    C      0.385500000000     0.470540000000     0.013490000000     0          
H1074    H      0.383500000000     0.447600000000     0.019600000000     0          
C1075    C      0.391210000000     0.494930000000     0.037930000000     0          
H1076    H      0.393400000000     0.488400000000     0.060800000000     0          
C1077    C      0.408700000000     0.591470000000     0.134050000000     0          
H1078    H      0.408900000000     0.568500000000     0.140500000000     0          
O1079    O      0.875430000000     0.923550000000     0.964370000000     0          
C1080    C      0.885500000000     0.970540000000     0.013490000000     0          
H1081    H      0.883500000000     0.947600000000     0.019600000000     0          
C1082    C      0.891210000000     0.994930000000     0.037930000000     0          
H1083    H      0.893400000000     0.988400000000     0.060800000000     0          
C1084    C      0.908700000000     0.091470000000     0.134050000000     0          
H1085    H      0.908900000000     0.068500000000     0.140500000000     0          
O1086    O      0.875430000000     0.423550000000     0.464370000000     0          
C1087    C      0.885500000000     0.470540000000     0.513490000000     0          
H1088    H      0.883500000000     0.447600000000     0.519600000000     0          
C1089    C      0.891210000000     0.494930000000     0.537930000000     0          
H1090    H      0.893400000000     0.488400000000     0.560800000000     0          
C1091    C      0.908700000000     0.591470000000     0.634050000000     0          
H1092    H      0.908900000000     0.568500000000     0.640500000000     0          
O1093    O      0.874570000000     0.826450000000     0.964370000000     0          
C1094    C      0.864500000000     0.779460000000     0.013490000000     0          
H1095    H      0.866500000000     0.802400000000     0.019600000000     0          
C1096    C      0.858790000000     0.755070000000     0.037930000000     0          
H1097    H      0.856600000000     0.761600000000     0.060800000000     0          
C1098    C      0.841300000000     0.658530000000     0.134050000000     0          
H1099    H      0.841100000000     0.681500000000     0.140500000000     0          
O1100    O      0.874570000000     0.326450000000     0.464370000000     0          
C1101    C      0.864500000000     0.279460000000     0.513490000000     0          
H1102    H      0.866500000000     0.302400000000     0.519600000000     0          
C1103    C      0.858790000000     0.255070000000     0.537930000000     0          
H1104    H      0.856600000000     0.261600000000     0.560800000000     0          
C1105    C      0.841300000000     0.158530000000     0.634050000000     0          
H1106    H      0.841100000000     0.181500000000     0.640500000000     0          
O1107    O      0.374570000000     0.826450000000     0.464370000000     0          
C1108    C      0.364500000000     0.779460000000     0.513490000000     0          
H1109    H      0.366500000000     0.802400000000     0.519600000000     0          
C1110    C      0.358790000000     0.755070000000     0.537930000000     0          
H1111    H      0.356600000000     0.761600000000     0.560800000000     0          
C1112    C      0.341300000000     0.658530000000     0.634050000000     0          
H1113    H      0.341100000000     0.681500000000     0.640500000000     0          
O1114    O      0.374570000000     0.326450000000     0.964370000000     0          
C1115    C      0.364500000000     0.279460000000     0.013490000000     0          
H1116    H      0.366500000000     0.302400000000     0.019600000000     0          
C1117    C      0.358790000000     0.255070000000     0.037930000000     0          
H1118    H      0.356600000000     0.261600000000     0.060800000000     0          
C1119    C      0.341300000000     0.158530000000     0.134050000000     0          
H1120    H      0.341100000000     0.181500000000     0.140500000000     0          
O1121    O      0.826450000000     0.964370000000     0.874570000000     0          
C1122    C      0.779460000000     0.013490000000     0.864500000000     0          
H1123    H      0.802400000000     0.019600000000     0.866500000000     0          
C1124    C      0.755070000000     0.037930000000     0.858790000000     0          
H1125    H      0.761600000000     0.060800000000     0.856600000000     0          
C1126    C      0.658530000000     0.134050000000     0.841300000000     0          
H1127    H      0.681500000000     0.140500000000     0.841100000000     0          
O1128    O      0.826450000000     0.464370000000     0.374570000000     0          
C1129    C      0.779460000000     0.513490000000     0.364500000000     0          
H1130    H      0.802400000000     0.519600000000     0.366500000000     0          
C1131    C      0.755070000000     0.537930000000     0.358790000000     0          
H1132    H      0.761600000000     0.560800000000     0.356600000000     0          
C1133    C      0.658530000000     0.634050000000     0.341300000000     0          
H1134    H      0.681500000000     0.640500000000     0.341100000000     0          
O1135    O      0.326450000000     0.964370000000     0.374570000000     0          
C1136    C      0.279460000000     0.013490000000     0.364500000000     0          
H1137    H      0.302400000000     0.019600000000     0.366500000000     0          
C1138    C      0.255070000000     0.037930000000     0.358790000000     0          
H1139    H      0.261600000000     0.060800000000     0.356600000000     0          
C1140    C      0.158530000000     0.134050000000     0.341300000000     0          
H1141    H      0.181500000000     0.140500000000     0.341100000000     0          
O1142    O      0.326450000000     0.464370000000     0.874570000000     0          
C1143    C      0.279460000000     0.513490000000     0.864500000000     0          
H1144    H      0.302400000000     0.519600000000     0.866500000000     0          
C1145    C      0.255070000000     0.537930000000     0.858790000000     0          
H1146    H      0.261600000000     0.560800000000     0.856600000000     0          
C1147    C      0.158530000000     0.634050000000     0.841300000000     0          
H1148    H      0.181500000000     0.640500000000     0.841100000000     0          
O1149    O      0.923550000000     0.464370000000     0.375430000000     0          
C1150    C      0.970540000000     0.513490000000     0.385500000000     0          
H1151    H      0.947600000000     0.519600000000     0.383500000000     0          
C1152    C      0.994930000000     0.537930000000     0.391210000000     0          
H1153    H      0.988400000000     0.560800000000     0.393400000000     0          
C1154    C      0.091470000000     0.634050000000     0.408700000000     0          
H1155    H      0.068500000000     0.640500000000     0.408900000000     0          
O1156    O      0.923550000000     0.964370000000     0.875430000000     0          
C1157    C      0.970540000000     0.013490000000     0.885500000000     0          
H1158    H      0.947600000000     0.019600000000     0.883500000000     0          
C1159    C      0.994930000000     0.037930000000     0.891210000000     0          
H1160    H      0.988400000000     0.060800000000     0.893400000000     0          
C1161    C      0.091470000000     0.134050000000     0.908700000000     0          
H1162    H      0.068500000000     0.140500000000     0.908900000000     0          
O1163    O      0.423550000000     0.464370000000     0.875430000000     0          
C1164    C      0.470540000000     0.513490000000     0.885500000000     0          
H1165    H      0.447600000000     0.519600000000     0.883500000000     0          
C1166    C      0.494930000000     0.537930000000     0.891210000000     0          
H1167    H      0.488400000000     0.560800000000     0.893400000000     0          
C1168    C      0.591470000000     0.634050000000     0.908700000000     0          
H1169    H      0.568500000000     0.640500000000     0.908900000000     0          
O1170    O      0.423550000000     0.964370000000     0.375430000000     0          
C1171    C      0.470540000000     0.013490000000     0.385500000000     0          
H1172    H      0.447600000000     0.019600000000     0.383500000000     0          
C1173    C      0.494930000000     0.037930000000     0.391210000000     0          
H1174    H      0.488400000000     0.060800000000     0.393400000000     0          
C1175    C      0.591470000000     0.134050000000     0.408700000000     0          
H1176    H      0.568500000000     0.140500000000     0.408900000000     0          
O1177    O      0.423550000000     0.785630000000     0.374570000000     0          
C1178    C      0.470540000000     0.736510000000     0.364500000000     0          
H1179    H      0.447600000000     0.730400000000     0.366500000000     0          
C1180    C      0.494930000000     0.712070000000     0.358790000000     0          
H1181    H      0.488400000000     0.689200000000     0.356600000000     0          
C1182    C      0.591470000000     0.615950000000     0.341300000000     0          
H1183    H      0.568500000000     0.609500000000     0.341100000000     0          
O1184    O      0.423550000000     0.285630000000     0.874570000000     0          
C1185    C      0.470540000000     0.236510000000     0.864500000000     0          
H1186    H      0.447600000000     0.230400000000     0.866500000000     0          
C1187    C      0.494930000000     0.212070000000     0.858790000000     0          
H1188    H      0.488400000000     0.189200000000     0.856600000000     0          
C1189    C      0.591470000000     0.115950000000     0.841300000000     0          
H1190    H      0.568500000000     0.109500000000     0.841100000000     0          
O1191    O      0.923550000000     0.785630000000     0.874570000000     0          
C1192    C      0.970540000000     0.736510000000     0.864500000000     0          
H1193    H      0.947600000000     0.730400000000     0.866500000000     0          
C1194    C      0.994930000000     0.712070000000     0.858790000000     0          
H1195    H      0.988400000000     0.689200000000     0.856600000000     0          
C1196    C      0.091470000000     0.615950000000     0.841300000000     0          
H1197    H      0.068500000000     0.609500000000     0.841100000000     0          
O1198    O      0.923550000000     0.285630000000     0.374570000000     0          
C1199    C      0.970540000000     0.236510000000     0.364500000000     0          
H1200    H      0.947600000000     0.230400000000     0.366500000000     0          
C1201    C      0.994930000000     0.212070000000     0.358790000000     0          
H1202    H      0.988400000000     0.189200000000     0.356600000000     0          
C1203    C      0.091470000000     0.115950000000     0.341300000000     0          
H1204    H      0.068500000000     0.109500000000     0.341100000000     0          
O1205    O      0.326450000000     0.285630000000     0.875430000000     0          
C1206    C      0.279460000000     0.236510000000     0.885500000000     0          
H1207    H      0.302400000000     0.230400000000     0.883500000000     0          
C1208    C      0.255070000000     0.212070000000     0.891210000000     0          
H1209    H      0.261600000000     0.189200000000     0.893400000000     0          
C1210    C      0.158530000000     0.115950000000     0.908700000000     0          
H1211    H      0.181500000000     0.109500000000     0.908900000000     0          
O1212    O      0.326450000000     0.785630000000     0.375430000000     0          
C1213    C      0.279460000000     0.736510000000     0.385500000000     0          
H1214    H      0.302400000000     0.730400000000     0.383500000000     0          
C1215    C      0.255070000000     0.712070000000     0.391210000000     0          
H1216    H      0.261600000000     0.689200000000     0.393400000000     0          
C1217    C      0.158530000000     0.615950000000     0.408700000000     0          
H1218    H      0.181500000000     0.609500000000     0.408900000000     0          
O1219    O      0.826450000000     0.285630000000     0.375430000000     0          
C1220    C      0.779460000000     0.236510000000     0.385500000000     0          
H1221    H      0.802400000000     0.230400000000     0.383500000000     0          
C1222    C      0.755070000000     0.212070000000     0.391210000000     0          
H1223    H      0.761600000000     0.189200000000     0.393400000000     0          
C1224    C      0.658530000000     0.115950000000     0.408700000000     0          
H1225    H      0.681500000000     0.109500000000     0.408900000000     0          
O1226    O      0.826450000000     0.785630000000     0.875430000000     0          
C1227    C      0.779460000000     0.736510000000     0.885500000000     0          
H1228    H      0.802400000000     0.730400000000     0.883500000000     0          
C1229    C      0.755070000000     0.712070000000     0.891210000000     0          
H1230    H      0.761600000000     0.689200000000     0.893400000000     0          
C1231    C      0.658530000000     0.615950000000     0.908700000000     0          
H1232    H      0.681500000000     0.609500000000     0.908900000000     0          
O1233    O      0.464370000000     0.375430000000     0.923550000000     0          
C1234    C      0.513490000000     0.385500000000     0.970540000000     0          
H1235    H      0.519600000000     0.383500000000     0.947600000000     0          
C1236    C      0.537930000000     0.391210000000     0.994930000000     0          
H1237    H      0.560800000000     0.393400000000     0.988400000000     0          
C1238    C      0.634050000000     0.408700000000     0.091470000000     0          
H1239    H      0.640500000000     0.408900000000     0.068500000000     0          
O1240    O      0.464370000000     0.875430000000     0.423550000000     0          
C1241    C      0.513490000000     0.885500000000     0.470540000000     0          
H1242    H      0.519600000000     0.883500000000     0.447600000000     0          
C1243    C      0.537930000000     0.891210000000     0.494930000000     0          
H1244    H      0.560800000000     0.893400000000     0.488400000000     0          
C1245    C      0.634050000000     0.908700000000     0.591470000000     0          
H1246    H      0.640500000000     0.908900000000     0.568500000000     0          
O1247    O      0.964370000000     0.375430000000     0.423550000000     0          
C1248    C      0.013490000000     0.385500000000     0.470540000000     0          
H1249    H      0.019600000000     0.383500000000     0.447600000000     0          
C1250    C      0.037930000000     0.391210000000     0.494930000000     0          
H1251    H      0.060800000000     0.393400000000     0.488400000000     0          
C1252    C      0.134050000000     0.408700000000     0.591470000000     0          
H1253    H      0.140500000000     0.408900000000     0.568500000000     0          
O1254    O      0.964370000000     0.875430000000     0.923550000000     0          
C1255    C      0.013490000000     0.885500000000     0.970540000000     0          
H1256    H      0.019600000000     0.883500000000     0.947600000000     0          
C1257    C      0.037930000000     0.891210000000     0.994930000000     0          
H1258    H      0.060800000000     0.893400000000     0.988400000000     0          
C1259    C      0.134050000000     0.908700000000     0.091470000000     0          
H1260    H      0.140500000000     0.908900000000     0.068500000000     0          
O1261    O      0.964370000000     0.874570000000     0.826450000000     0          
C1262    C      0.013490000000     0.864500000000     0.779460000000     0          
H1263    H      0.019600000000     0.866500000000     0.802400000000     0          
C1264    C      0.037930000000     0.858790000000     0.755070000000     0          
H1265    H      0.060800000000     0.856600000000     0.761600000000     0          
C1266    C      0.134050000000     0.841300000000     0.658530000000     0          
H1267    H      0.140500000000     0.841100000000     0.681500000000     0          
O1268    O      0.964370000000     0.374570000000     0.326450000000     0          
C1269    C      0.013490000000     0.364500000000     0.279460000000     0          
H1270    H      0.019600000000     0.366500000000     0.302400000000     0          
C1271    C      0.037930000000     0.358790000000     0.255070000000     0          
H1272    H      0.060800000000     0.356600000000     0.261600000000     0          
C1273    C      0.134050000000     0.341300000000     0.158530000000     0          
H1274    H      0.140500000000     0.341100000000     0.181500000000     0          
O1275    O      0.464370000000     0.874570000000     0.326450000000     0          
C1276    C      0.513490000000     0.864500000000     0.279460000000     0          
H1277    H      0.519600000000     0.866500000000     0.302400000000     0          
C1278    C      0.537930000000     0.858790000000     0.255070000000     0          
H1279    H      0.560800000000     0.856600000000     0.261600000000     0          
C1280    C      0.634050000000     0.841300000000     0.158530000000     0          
H1281    H      0.640500000000     0.841100000000     0.181500000000     0          
O1282    O      0.464370000000     0.374570000000     0.826450000000     0          
C1283    C      0.513490000000     0.364500000000     0.779460000000     0          
H1284    H      0.519600000000     0.366500000000     0.802400000000     0          
C1285    C      0.537930000000     0.358790000000     0.755070000000     0          
H1286    H      0.560800000000     0.356600000000     0.761600000000     0          
C1287    C      0.634050000000     0.341300000000     0.658530000000     0          
H1288    H      0.640500000000     0.341100000000     0.681500000000     0          
O1289    O      0.285630000000     0.875430000000     0.326450000000     0          
C1290    C      0.236510000000     0.885500000000     0.279460000000     0          
H1291    H      0.230400000000     0.883500000000     0.302400000000     0          
C1292    C      0.212070000000     0.891210000000     0.255070000000     0          
H1293    H      0.189200000000     0.893400000000     0.261600000000     0          
C1294    C      0.115950000000     0.908700000000     0.158530000000     0          
H1295    H      0.109500000000     0.908900000000     0.181500000000     0          
O1296    O      0.285630000000     0.375430000000     0.826450000000     0          
C1297    C      0.236510000000     0.385500000000     0.779460000000     0          
H1298    H      0.230400000000     0.383500000000     0.802400000000     0          
C1299    C      0.212070000000     0.391210000000     0.755070000000     0          
H1300    H      0.189200000000     0.393400000000     0.761600000000     0          
C1301    C      0.115950000000     0.408700000000     0.658530000000     0          
H1302    H      0.109500000000     0.408900000000     0.681500000000     0          
O1303    O      0.785630000000     0.875430000000     0.826450000000     0          
C1304    C      0.736510000000     0.885500000000     0.779460000000     0          
H1305    H      0.730400000000     0.883500000000     0.802400000000     0          
C1306    C      0.712070000000     0.891210000000     0.755070000000     0          
H1307    H      0.689200000000     0.893400000000     0.761600000000     0          
C1308    C      0.615950000000     0.908700000000     0.658530000000     0          
H1309    H      0.609500000000     0.908900000000     0.681500000000     0          
O1310    O      0.785630000000     0.375430000000     0.326450000000     0          
C1311    C      0.736510000000     0.385500000000     0.279460000000     0          
H1312    H      0.730400000000     0.383500000000     0.302400000000     0          
C1313    C      0.712070000000     0.391210000000     0.255070000000     0          
H1314    H      0.689200000000     0.393400000000     0.261600000000     0          
C1315    C      0.615950000000     0.408700000000     0.158530000000     0          
H1316    H      0.609500000000     0.408900000000     0.181500000000     0          
O1317    O      0.785630000000     0.374570000000     0.423550000000     0          
C1318    C      0.736510000000     0.364500000000     0.470540000000     0          
H1319    H      0.730400000000     0.366500000000     0.447600000000     0          
C1320    C      0.712070000000     0.358790000000     0.494930000000     0          
H1321    H      0.689200000000     0.356600000000     0.488400000000     0          
C1322    C      0.615950000000     0.341300000000     0.591470000000     0          
H1323    H      0.609500000000     0.341100000000     0.568500000000     0          
O1324    O      0.785630000000     0.874570000000     0.923550000000     0          
C1325    C      0.736510000000     0.864500000000     0.970540000000     0          
H1326    H      0.730400000000     0.866500000000     0.947600000000     0          
C1327    C      0.712070000000     0.858790000000     0.994930000000     0          
H1328    H      0.689200000000     0.856600000000     0.988400000000     0          
C1329    C      0.615950000000     0.841300000000     0.091470000000     0          
H1330    H      0.609500000000     0.841100000000     0.068500000000     0          
O1331    O      0.285630000000     0.374570000000     0.923550000000     0          
C1332    C      0.236510000000     0.364500000000     0.970540000000     0          
H1333    H      0.230400000000     0.366500000000     0.947600000000     0          
C1334    C      0.212070000000     0.358790000000     0.994930000000     0          
H1335    H      0.189200000000     0.356600000000     0.988400000000     0          
C1336    C      0.115950000000     0.341300000000     0.091470000000     0          
H1337    H      0.109500000000     0.341100000000     0.068500000000     0          
O1338    O      0.285630000000     0.874570000000     0.423550000000     0          
C1339    C      0.236510000000     0.864500000000     0.470540000000     0          
H1340    H      0.230400000000     0.866500000000     0.447600000000     0          
C1341    C      0.212070000000     0.858790000000     0.494930000000     0          
H1342    H      0.189200000000     0.856600000000     0.488400000000     0          
C1343    C      0.115950000000     0.841300000000     0.591470000000     0          
H1344    H      0.109500000000     0.841100000000     0.568500000000     0          
Zr1345   Zr     0.375000000000     0.375000000000     0.812930000000     0          
Zr1346   Zr     0.375000000000     0.875000000000     0.312930000000     0          
Zr1347   Zr     0.875000000000     0.875000000000     0.937070000000     0          
Zr1348   Zr     0.375000000000     0.375000000000     0.937070000000     0          
Zr1349   Zr     0.875000000000     0.375000000000     0.437070000000     0          
Zr1350   Zr     0.812930000000     0.375000000000     0.375000000000     0          
Zr1351   Zr     0.812930000000     0.875000000000     0.875000000000     0          
Zr1352   Zr     0.312930000000     0.375000000000     0.875000000000     0          
Zr1353   Zr     0.937070000000     0.875000000000     0.875000000000     0          
Zr1354   Zr     0.937070000000     0.375000000000     0.375000000000     0          
Zr1355   Zr     0.437070000000     0.875000000000     0.375000000000     0          
Zr1356   Zr     0.375000000000     0.812930000000     0.375000000000     0          
Zr1357   Zr     0.875000000000     0.312930000000     0.375000000000     0          
Zr1358   Zr     0.875000000000     0.812930000000     0.875000000000     0          
Zr1359   Zr     0.875000000000     0.937070000000     0.875000000000     0          
Zr1360   Zr     0.375000000000     0.437070000000     0.875000000000     0          
Zr1361   Zr     0.375000000000     0.937070000000     0.375000000000     0          
Zr1362   Zr     0.125000000000     0.625000000000     0.687070000000     0          
Zr1363   Zr     0.125000000000     0.125000000000     0.187070000000     0          
Zr1364   Zr     0.625000000000     0.625000000000     0.187070000000     0          
Zr1365   Zr     0.625000000000     0.125000000000     0.562930000000     0          
Zr1366   Zr     0.625000000000     0.625000000000     0.062930000000     0          
Zr1367   Zr     0.125000000000     0.125000000000     0.062930000000     0          
Zr1368   Zr     0.125000000000     0.062930000000     0.125000000000     0          
Zr1369   Zr     0.125000000000     0.562930000000     0.625000000000     0          
Zr1370   Zr     0.625000000000     0.062930000000     0.625000000000     0          
Zr1371   Zr     0.625000000000     0.187070000000     0.625000000000     0          
Zr1372   Zr     0.625000000000     0.687070000000     0.125000000000     0          
Zr1373   Zr     0.125000000000     0.187070000000     0.125000000000     0          
Zr1374   Zr     0.562930000000     0.625000000000     0.125000000000     0          
Zr1375   Zr     0.062930000000     0.125000000000     0.125000000000     0          
Zr1376   Zr     0.062930000000     0.625000000000     0.625000000000     0          
Zr1377   Zr     0.687070000000     0.125000000000     0.625000000000     0          
Zr1378   Zr     0.187070000000     0.625000000000     0.625000000000     0          
Zr1379   Zr     0.187070000000     0.125000000000     0.125000000000     0          
Zr1380   Zr     0.625000000000     0.125000000000     0.687070000000     0          
Zr1381   Zr     0.125000000000     0.625000000000     0.562930000000     0          
Zr1382   Zr     0.687070000000     0.625000000000     0.125000000000     0          
Zr1383   Zr     0.562930000000     0.125000000000     0.625000000000     0          
Zr1384   Zr     0.125000000000     0.687070000000     0.625000000000     0          
Zr1385   Zr     0.625000000000     0.562930000000     0.125000000000     0          
Zr1386   Zr     0.875000000000     0.375000000000     0.312930000000     0          
Zr1387   Zr     0.875000000000     0.875000000000     0.812930000000     0          
Zr1388   Zr     0.375000000000     0.875000000000     0.437070000000     0          
Zr1389   Zr     0.875000000000     0.437070000000     0.375000000000     0          
Zr1390   Zr     0.375000000000     0.312930000000     0.875000000000     0          
Zr1391   Zr     0.437070000000     0.375000000000     0.875000000000     0          
Zr1392   Zr     0.312930000000     0.875000000000     0.375000000000     0          
O1393    O      0.408320000000     0.408320000000     0.841680000000     0          
O1394    O      0.341680000000     0.841680000000     0.341680000000     0          
O1395    O      0.841680000000     0.908320000000     0.908320000000     0          
O1396    O      0.908320000000     0.341680000000     0.408320000000     0          
O1397    O      0.841680000000     0.408320000000     0.408320000000     0          
O1398    O      0.341680000000     0.341680000000     0.841680000000     0          
O1399    O      0.908320000000     0.841680000000     0.908320000000     0          
O1400    O      0.408320000000     0.908320000000     0.341680000000     0          
O1401    O      0.408320000000     0.841680000000     0.408320000000     0          
O1402    O      0.841680000000     0.341680000000     0.341680000000     0          
O1403    O      0.841680000000     0.841680000000     0.841680000000     0          
O1404    O      0.908320000000     0.908320000000     0.841680000000     0          
O1405    O      0.341680000000     0.408320000000     0.908320000000     0          
O1406    O      0.158320000000     0.658320000000     0.658320000000     0          
O1407    O      0.158320000000     0.158320000000     0.158320000000     0          
O1408    O      0.591680000000     0.591680000000     0.158320000000     0          
O1409    O      0.658320000000     0.091680000000     0.591680000000     0          
O1410    O      0.091680000000     0.158320000000     0.091680000000     0          
O1411    O      0.158320000000     0.091680000000     0.091680000000     0          
O1412    O      0.091680000000     0.591680000000     0.658320000000     0          
O1413    O      0.591680000000     0.158320000000     0.591680000000     0          
O1414    O      0.658320000000     0.658320000000     0.158320000000     0          
O1415    O      0.591680000000     0.658320000000     0.091680000000     0          
O1416    O      0.091680000000     0.091680000000     0.158320000000     0          
O1417    O      0.658320000000     0.158320000000     0.658320000000     0          
O1418    O      0.158320000000     0.591680000000     0.591680000000     0          
O1419    O      0.091680000000     0.658320000000     0.591680000000     0          
O1420    O      0.591680000000     0.091680000000     0.658320000000     0          
O1421    O      0.658320000000     0.591680000000     0.091680000000     0          
O1422    O      0.341680000000     0.908320000000     0.408320000000     0          
O1423    O      0.908320000000     0.408320000000     0.341680000000     0          
O1424    O      0.408320000000     0.341680000000     0.908320000000     0          
O1425    O      0.346080000000     0.403920000000     0.846080000000     0          
O1426    O      0.346080000000     0.903920000000     0.346080000000     0          
O1427    O      0.403920000000     0.846080000000     0.346080000000     0          
O1428    O      0.903920000000     0.846080000000     0.846080000000     0          
O1429    O      0.903920000000     0.346080000000     0.346080000000     0          
O1430    O      0.903920000000     0.903920000000     0.903920000000     0          
O1431    O      0.903920000000     0.403920000000     0.403920000000     0          
O1432    O      0.403920000000     0.903920000000     0.403920000000     0          
O1433    O      0.403920000000     0.403920000000     0.903920000000     0          
O1434    O      0.846080000000     0.346080000000     0.403920000000     0          
O1435    O      0.846080000000     0.846080000000     0.903920000000     0          
O1436    O      0.153920000000     0.596080000000     0.653920000000     0          
O1437    O      0.153920000000     0.096080000000     0.153920000000     0          
O1438    O      0.596080000000     0.653920000000     0.153920000000     0          
O1439    O      0.096080000000     0.653920000000     0.653920000000     0          
O1440    O      0.653920000000     0.153920000000     0.596080000000     0          
O1441    O      0.653920000000     0.653920000000     0.096080000000     0          
O1442    O      0.096080000000     0.096080000000     0.096080000000     0          
O1443    O      0.096080000000     0.596080000000     0.596080000000     0          
O1444    O      0.596080000000     0.096080000000     0.596080000000     0          
O1445    O      0.596080000000     0.596080000000     0.096080000000     0          
O1446    O      0.653920000000     0.096080000000     0.653920000000     0          
O1447    O      0.653920000000     0.596080000000     0.153920000000     0          
O1448    O      0.596080000000     0.153920000000     0.653920000000     0          
O1449    O      0.096080000000     0.153920000000     0.153920000000     0          
O1450    O      0.153920000000     0.653920000000     0.596080000000     0          
O1451    O      0.153920000000     0.153920000000     0.096080000000     0          
O1452    O      0.846080000000     0.403920000000     0.346080000000     0          
O1453    O      0.846080000000     0.903920000000     0.846080000000     0          
O1454    O      0.403920000000     0.346080000000     0.846080000000     0          
O1455    O      0.346080000000     0.846080000000     0.403920000000     0          
O1456    O      0.346080000000     0.346080000000     0.903920000000     0          
C1457    C      0.453650000000     0.371690000000     0.796350000000     0          
C1458    C      0.480100000000     0.367230000000     0.769900000000     0          
C1459    C      0.529140000000     0.356200000000     0.720860000000     0          
C1460    C      0.554620000000     0.349000000000     0.695380000000     0          
C1461    C      0.574870000000     0.345000000000     0.675130000000     0          
C1462    C      0.599680000000     0.341500000000     0.650320000000     0          
C1463    C      0.453650000000     0.871690000000     0.296350000000     0          
C1464    C      0.480100000000     0.867230000000     0.269900000000     0          
C1465    C      0.529140000000     0.856200000000     0.220860000000     0          
C1466    C      0.554620000000     0.849000000000     0.195380000000     0          
C1467    C      0.574870000000     0.845000000000     0.175130000000     0          
C1468    C      0.599680000000     0.841500000000     0.150320000000     0          
C1469    C      0.296350000000     0.878310000000     0.296350000000     0          
C1470    C      0.269900000000     0.882770000000     0.269900000000     0          
C1471    C      0.220860000000     0.893800000000     0.220860000000     0          
C1472    C      0.195380000000     0.901000000000     0.195380000000     0          
C1473    C      0.175130000000     0.905000000000     0.175130000000     0          
C1474    C      0.150320000000     0.908500000000     0.150320000000     0          
C1475    C      0.296350000000     0.378310000000     0.796350000000     0          
C1476    C      0.269900000000     0.382770000000     0.769900000000     0          
C1477    C      0.220860000000     0.393800000000     0.720860000000     0          
C1478    C      0.195380000000     0.401000000000     0.695380000000     0          
C1479    C      0.175130000000     0.405000000000     0.675130000000     0          
C1480    C      0.150320000000     0.408500000000     0.650320000000     0          
C1481    C      0.796350000000     0.878310000000     0.796350000000     0          
C1482    C      0.769900000000     0.882770000000     0.769900000000     0          
C1483    C      0.720860000000     0.893800000000     0.720860000000     0          
C1484    C      0.695380000000     0.901000000000     0.695380000000     0          
C1485    C      0.675130000000     0.905000000000     0.675130000000     0          
C1486    C      0.650320000000     0.908500000000     0.650320000000     0          
C1487    C      0.796350000000     0.378310000000     0.296350000000     0          
C1488    C      0.769900000000     0.382770000000     0.269900000000     0          
C1489    C      0.720860000000     0.393800000000     0.220860000000     0          
C1490    C      0.695380000000     0.401000000000     0.195380000000     0          
C1491    C      0.675130000000     0.405000000000     0.175130000000     0          
C1492    C      0.650320000000     0.408500000000     0.150320000000     0          
C1493    C      0.796350000000     0.871690000000     0.953650000000     0          
C1494    C      0.769900000000     0.867230000000     0.980100000000     0          
C1495    C      0.720860000000     0.856200000000     0.029140000000     0          
C1496    C      0.695380000000     0.849000000000     0.054620000000     0          
C1497    C      0.675130000000     0.845000000000     0.074870000000     0          
C1498    C      0.650320000000     0.841500000000     0.099680000000     0          
C1499    C      0.296350000000     0.871690000000     0.453650000000     0          
C1500    C      0.269900000000     0.867230000000     0.480100000000     0          
C1501    C      0.220860000000     0.856200000000     0.529140000000     0          
C1502    C      0.195380000000     0.849000000000     0.554620000000     0          
C1503    C      0.175130000000     0.845000000000     0.574870000000     0          
C1504    C      0.150320000000     0.841500000000     0.599680000000     0          
C1505    C      0.953650000000     0.378310000000     0.453650000000     0          
C1506    C      0.980100000000     0.382770000000     0.480100000000     0          
C1507    C      0.029140000000     0.393800000000     0.529140000000     0          
C1508    C      0.054620000000     0.401000000000     0.554620000000     0          
C1509    C      0.074870000000     0.405000000000     0.574870000000     0          
C1510    C      0.099680000000     0.408500000000     0.599680000000     0          
C1511    C      0.953650000000     0.878310000000     0.953650000000     0          
C1512    C      0.980100000000     0.882770000000     0.980100000000     0          
C1513    C      0.029140000000     0.893800000000     0.029140000000     0          
C1514    C      0.054620000000     0.901000000000     0.054620000000     0          
C1515    C      0.074870000000     0.905000000000     0.074870000000     0          
C1516    C      0.099680000000     0.908500000000     0.099680000000     0          
C1517    C      0.796350000000     0.453650000000     0.371690000000     0          
C1518    C      0.769900000000     0.480100000000     0.367230000000     0          
C1519    C      0.720860000000     0.529140000000     0.356200000000     0          
C1520    C      0.695380000000     0.554620000000     0.349000000000     0          
C1521    C      0.675130000000     0.574870000000     0.345000000000     0          
C1522    C      0.650320000000     0.599680000000     0.341500000000     0          
C1523    C      0.296350000000     0.453650000000     0.871690000000     0          
C1524    C      0.269900000000     0.480100000000     0.867230000000     0          
C1525    C      0.220860000000     0.529140000000     0.856200000000     0          
C1526    C      0.195380000000     0.554620000000     0.849000000000     0          
C1527    C      0.175130000000     0.574870000000     0.845000000000     0          
C1528    C      0.150320000000     0.599680000000     0.841500000000     0          
C1529    C      0.296350000000     0.296350000000     0.878310000000     0          
C1530    C      0.269900000000     0.269900000000     0.882770000000     0          
C1531    C      0.220860000000     0.220860000000     0.893800000000     0          
C1532    C      0.195380000000     0.195380000000     0.901000000000     0          
C1533    C      0.175130000000     0.175130000000     0.905000000000     0          
C1534    C      0.150320000000     0.150320000000     0.908500000000     0          
C1535    C      0.296350000000     0.796350000000     0.378310000000     0          
C1536    C      0.269900000000     0.769900000000     0.382770000000     0          
C1537    C      0.220860000000     0.720860000000     0.393800000000     0          
C1538    C      0.195380000000     0.695380000000     0.401000000000     0          
C1539    C      0.175130000000     0.675130000000     0.405000000000     0          
C1540    C      0.150320000000     0.650320000000     0.408500000000     0          
C1541    C      0.796350000000     0.296350000000     0.378310000000     0          
C1542    C      0.769900000000     0.269900000000     0.382770000000     0          
C1543    C      0.720860000000     0.220860000000     0.393800000000     0          
C1544    C      0.695380000000     0.195380000000     0.401000000000     0          
C1545    C      0.675130000000     0.175130000000     0.405000000000     0          
C1546    C      0.650320000000     0.150320000000     0.408500000000     0          
C1547    C      0.796350000000     0.796350000000     0.878310000000     0          
C1548    C      0.769900000000     0.769900000000     0.882770000000     0          
C1549    C      0.720860000000     0.720860000000     0.893800000000     0          
C1550    C      0.695380000000     0.695380000000     0.901000000000     0          
C1551    C      0.675130000000     0.675130000000     0.905000000000     0          
C1552    C      0.650320000000     0.650320000000     0.908500000000     0          
C1553    C      0.953650000000     0.796350000000     0.871690000000     0          
C1554    C      0.980100000000     0.769900000000     0.867230000000     0          
C1555    C      0.029140000000     0.720860000000     0.856200000000     0          
C1556    C      0.054620000000     0.695380000000     0.849000000000     0          
C1557    C      0.074870000000     0.675130000000     0.845000000000     0          
C1558    C      0.099680000000     0.650320000000     0.841500000000     0          
C1559    C      0.953650000000     0.296350000000     0.371690000000     0          
C1560    C      0.980100000000     0.269900000000     0.367230000000     0          
C1561    C      0.029140000000     0.220860000000     0.356200000000     0          
C1562    C      0.054620000000     0.195380000000     0.349000000000     0          
C1563    C      0.074870000000     0.175130000000     0.345000000000     0          
C1564    C      0.099680000000     0.150320000000     0.341500000000     0          
C1565    C      0.453650000000     0.953650000000     0.378310000000     0          
C1566    C      0.480100000000     0.980100000000     0.382770000000     0          
C1567    C      0.529140000000     0.029140000000     0.393800000000     0          
C1568    C      0.554620000000     0.054620000000     0.401000000000     0          
C1569    C      0.574870000000     0.074870000000     0.405000000000     0          
C1570    C      0.599680000000     0.099680000000     0.408500000000     0          
C1571    C      0.453650000000     0.453650000000     0.878310000000     0          
C1572    C      0.480100000000     0.480100000000     0.882770000000     0          
C1573    C      0.529140000000     0.529140000000     0.893800000000     0          
C1574    C      0.554620000000     0.554620000000     0.901000000000     0          
C1575    C      0.574870000000     0.574870000000     0.905000000000     0          
C1576    C      0.599680000000     0.599680000000     0.908500000000     0          
C1577    C      0.371690000000     0.796350000000     0.453650000000     0          
C1578    C      0.367230000000     0.769900000000     0.480100000000     0          
C1579    C      0.356200000000     0.720860000000     0.529140000000     0          
C1580    C      0.349000000000     0.695380000000     0.554620000000     0          
C1581    C      0.345000000000     0.675130000000     0.574870000000     0          
C1582    C      0.341500000000     0.650320000000     0.599680000000     0          
C1583    C      0.371690000000     0.296350000000     0.953650000000     0          
C1584    C      0.367230000000     0.269900000000     0.980100000000     0          
C1585    C      0.356200000000     0.220860000000     0.029140000000     0          
C1586    C      0.349000000000     0.195380000000     0.054620000000     0          
C1587    C      0.345000000000     0.175130000000     0.074870000000     0          
C1588    C      0.341500000000     0.150320000000     0.099680000000     0          
C1589    C      0.878310000000     0.296350000000     0.296350000000     0          
C1590    C      0.882770000000     0.269900000000     0.269900000000     0          
C1591    C      0.893800000000     0.220860000000     0.220860000000     0          
C1592    C      0.901000000000     0.195380000000     0.195380000000     0          
C1593    C      0.905000000000     0.175130000000     0.175130000000     0          
C1594    C      0.908500000000     0.150320000000     0.150320000000     0          
C1595    C      0.878310000000     0.796350000000     0.796350000000     0          
C1596    C      0.882770000000     0.769900000000     0.769900000000     0          
C1597    C      0.893800000000     0.720860000000     0.720860000000     0          
C1598    C      0.901000000000     0.695380000000     0.695380000000     0          
C1599    C      0.905000000000     0.675130000000     0.675130000000     0          
C1600    C      0.908500000000     0.650320000000     0.650320000000     0          
C1601    C      0.378310000000     0.296350000000     0.796350000000     0          
C1602    C      0.382770000000     0.269900000000     0.769900000000     0          
C1603    C      0.393800000000     0.220860000000     0.720860000000     0          
C1604    C      0.401000000000     0.195380000000     0.695380000000     0          
C1605    C      0.405000000000     0.175130000000     0.675130000000     0          
C1606    C      0.408500000000     0.150320000000     0.650320000000     0          
C1607    C      0.378310000000     0.796350000000     0.296350000000     0          
C1608    C      0.382770000000     0.769900000000     0.269900000000     0          
C1609    C      0.393800000000     0.720860000000     0.220860000000     0          
C1610    C      0.401000000000     0.695380000000     0.195380000000     0          
C1611    C      0.405000000000     0.675130000000     0.175130000000     0          
C1612    C      0.408500000000     0.650320000000     0.150320000000     0          
C1613    C      0.871690000000     0.953650000000     0.796350000000     0          
C1614    C      0.867230000000     0.980100000000     0.769900000000     0          
C1615    C      0.856200000000     0.029140000000     0.720860000000     0          
C1616    C      0.849000000000     0.054620000000     0.695380000000     0          
C1617    C      0.845000000000     0.074870000000     0.675130000000     0          
C1618    C      0.841500000000     0.099680000000     0.650320000000     0          
C1619    C      0.871690000000     0.453650000000     0.296350000000     0          
C1620    C      0.867230000000     0.480100000000     0.269900000000     0          
C1621    C      0.856200000000     0.529140000000     0.220860000000     0          
C1622    C      0.849000000000     0.554620000000     0.195380000000     0          
C1623    C      0.845000000000     0.574870000000     0.175130000000     0          
C1624    C      0.841500000000     0.599680000000     0.150320000000     0          
C1625    C      0.378310000000     0.453650000000     0.953650000000     0          
C1626    C      0.382770000000     0.480100000000     0.980100000000     0          
C1627    C      0.393800000000     0.529140000000     0.029140000000     0          
C1628    C      0.401000000000     0.554620000000     0.054620000000     0          
C1629    C      0.405000000000     0.574870000000     0.074870000000     0          
C1630    C      0.408500000000     0.599680000000     0.099680000000     0          
C1631    C      0.878310000000     0.453650000000     0.453650000000     0          
C1632    C      0.882770000000     0.480100000000     0.480100000000     0          
C1633    C      0.893800000000     0.529140000000     0.529140000000     0          
C1634    C      0.901000000000     0.554620000000     0.554620000000     0          
C1635    C      0.905000000000     0.574870000000     0.574870000000     0          
C1636    C      0.908500000000     0.599680000000     0.599680000000     0          
C1637    C      0.121690000000     0.703650000000     0.703650000000     0          
C1638    C      0.117230000000     0.730100000000     0.730100000000     0          
C1639    C      0.106200000000     0.779140000000     0.779140000000     0          
C1640    C      0.099000000000     0.804620000000     0.804620000000     0          
C1641    C      0.095000000000     0.824870000000     0.824870000000     0          
C1642    C      0.091500000000     0.849680000000     0.849680000000     0          
C1643    C      0.121690000000     0.203650000000     0.203650000000     0          
C1644    C      0.117230000000     0.230100000000     0.230100000000     0          
C1645    C      0.106200000000     0.279140000000     0.279140000000     0          
C1646    C      0.099000000000     0.304620000000     0.304620000000     0          
C1647    C      0.095000000000     0.324870000000     0.324870000000     0          
C1648    C      0.091500000000     0.349680000000     0.349680000000     0          
C1649    C      0.621690000000     0.703650000000     0.203650000000     0          
C1650    C      0.617230000000     0.730100000000     0.230100000000     0          
C1651    C      0.606200000000     0.779140000000     0.279140000000     0          
C1652    C      0.599000000000     0.804620000000     0.304620000000     0          
C1653    C      0.595000000000     0.824870000000     0.324870000000     0          
C1654    C      0.591500000000     0.849680000000     0.349680000000     0          
C1655    C      0.621690000000     0.203650000000     0.703650000000     0          
C1656    C      0.617230000000     0.230100000000     0.730100000000     0          
C1657    C      0.606200000000     0.279140000000     0.779140000000     0          
C1658    C      0.599000000000     0.304620000000     0.804620000000     0          
C1659    C      0.595000000000     0.324870000000     0.824870000000     0          
C1660    C      0.591500000000     0.349680000000     0.849680000000     0          
C1661    C      0.628310000000     0.546350000000     0.203650000000     0          
C1662    C      0.632770000000     0.519900000000     0.230100000000     0          
C1663    C      0.643800000000     0.470860000000     0.279140000000     0          
C1664    C      0.651000000000     0.445380000000     0.304620000000     0          
C1665    C      0.655000000000     0.425130000000     0.324870000000     0          
C1666    C      0.658500000000     0.400320000000     0.349680000000     0          
C1667    C      0.628310000000     0.046350000000     0.703650000000     0          
C1668    C      0.632770000000     0.019900000000     0.730100000000     0          
C1669    C      0.643800000000     0.970860000000     0.779140000000     0          
C1670    C      0.651000000000     0.945380000000     0.804620000000     0          
C1671    C      0.655000000000     0.925130000000     0.824870000000     0          
C1672    C      0.658500000000     0.900320000000     0.849680000000     0          
C1673    C      0.621690000000     0.046350000000     0.546350000000     0          
C1674    C      0.617230000000     0.019900000000     0.519900000000     0          
C1675    C      0.606200000000     0.970860000000     0.470860000000     0          
C1676    C      0.599000000000     0.945380000000     0.445380000000     0          
C1677    C      0.595000000000     0.925130000000     0.425130000000     0          
C1678    C      0.591500000000     0.900320000000     0.400320000000     0          
C1679    C      0.121690000000     0.046350000000     0.046350000000     0          
C1680    C      0.117230000000     0.019900000000     0.019900000000     0          
C1681    C      0.106200000000     0.970860000000     0.970860000000     0          
C1682    C      0.099000000000     0.945380000000     0.945380000000     0          
C1683    C      0.095000000000     0.925130000000     0.925130000000     0          
C1684    C      0.091500000000     0.900320000000     0.900320000000     0          
C1685    C      0.128310000000     0.203650000000     0.046350000000     0          
C1686    C      0.132770000000     0.230100000000     0.019900000000     0          
C1687    C      0.143800000000     0.279140000000     0.970860000000     0          
C1688    C      0.151000000000     0.304620000000     0.945380000000     0          
C1689    C      0.155000000000     0.324870000000     0.925130000000     0          
C1690    C      0.158500000000     0.349680000000     0.900320000000     0          
C1691    C      0.128310000000     0.703650000000     0.546350000000     0          
C1692    C      0.132770000000     0.730100000000     0.519900000000     0          
C1693    C      0.143800000000     0.779140000000     0.470860000000     0          
C1694    C      0.151000000000     0.804620000000     0.445380000000     0          
C1695    C      0.155000000000     0.824870000000     0.425130000000     0          
C1696    C      0.158500000000     0.849680000000     0.400320000000     0          
C1697    C      0.203650000000     0.046350000000     0.128310000000     0          
C1698    C      0.230100000000     0.019900000000     0.132770000000     0          
C1699    C      0.279140000000     0.970860000000     0.143800000000     0          
C1700    C      0.304620000000     0.945380000000     0.151000000000     0          
C1701    C      0.324870000000     0.925130000000     0.155000000000     0          
C1702    C      0.349680000000     0.900320000000     0.158500000000     0          
C1703    C      0.703650000000     0.046350000000     0.628310000000     0          
C1704    C      0.730100000000     0.019900000000     0.632770000000     0          
C1705    C      0.779140000000     0.970860000000     0.643800000000     0          
C1706    C      0.804620000000     0.945380000000     0.651000000000     0          
C1707    C      0.824870000000     0.925130000000     0.655000000000     0          
C1708    C      0.849680000000     0.900320000000     0.658500000000     0          
C1709    C      0.046350000000     0.546350000000     0.621690000000     0          
C1710    C      0.019900000000     0.519900000000     0.617230000000     0          
C1711    C      0.970860000000     0.470860000000     0.606200000000     0          
C1712    C      0.945380000000     0.445380000000     0.599000000000     0          
C1713    C      0.925130000000     0.425130000000     0.595000000000     0          
C1714    C      0.900320000000     0.400320000000     0.591500000000     0          
C1715    C      0.046350000000     0.046350000000     0.121690000000     0          
C1716    C      0.019900000000     0.019900000000     0.117230000000     0          
C1717    C      0.970860000000     0.970860000000     0.106200000000     0          
C1718    C      0.945380000000     0.945380000000     0.099000000000     0          
C1719    C      0.925130000000     0.925130000000     0.095000000000     0          
C1720    C      0.900320000000     0.900320000000     0.091500000000     0          
C1721    C      0.546350000000     0.203650000000     0.628310000000     0          
C1722    C      0.519900000000     0.230100000000     0.632770000000     0          
C1723    C      0.470860000000     0.279140000000     0.643800000000     0          
C1724    C      0.445380000000     0.304620000000     0.651000000000     0          
C1725    C      0.425130000000     0.324870000000     0.655000000000     0          
C1726    C      0.400320000000     0.349680000000     0.658500000000     0          
C1727    C      0.546350000000     0.703650000000     0.128310000000     0          
C1728    C      0.519900000000     0.730100000000     0.132770000000     0          
C1729    C      0.470860000000     0.779140000000     0.143800000000     0          
C1730    C      0.445380000000     0.804620000000     0.151000000000     0          
C1731    C      0.425130000000     0.824870000000     0.155000000000     0          
C1732    C      0.400320000000     0.849680000000     0.158500000000     0          
C1733    C      0.703650000000     0.703650000000     0.121690000000     0          
C1734    C      0.730100000000     0.730100000000     0.117230000000     0          
C1735    C      0.779140000000     0.779140000000     0.106200000000     0          
C1736    C      0.804620000000     0.804620000000     0.099000000000     0          
C1737    C      0.824870000000     0.824870000000     0.095000000000     0          
C1738    C      0.849680000000     0.849680000000     0.091500000000     0          
C1739    C      0.703650000000     0.203650000000     0.621690000000     0          
C1740    C      0.730100000000     0.230100000000     0.617230000000     0          
C1741    C      0.779140000000     0.279140000000     0.606200000000     0          
C1742    C      0.804620000000     0.304620000000     0.599000000000     0          
C1743    C      0.824870000000     0.324870000000     0.595000000000     0          
C1744    C      0.849680000000     0.349680000000     0.591500000000     0          
C1745    C      0.203650000000     0.703650000000     0.621690000000     0          
C1746    C      0.230100000000     0.730100000000     0.617230000000     0          
C1747    C      0.279140000000     0.779140000000     0.606200000000     0          
C1748    C      0.304620000000     0.804620000000     0.599000000000     0          
C1749    C      0.324870000000     0.824870000000     0.595000000000     0          
C1750    C      0.349680000000     0.849680000000     0.591500000000     0          
C1751    C      0.203650000000     0.203650000000     0.121690000000     0          
C1752    C      0.230100000000     0.230100000000     0.117230000000     0          
C1753    C      0.279140000000     0.279140000000     0.106200000000     0          
C1754    C      0.304620000000     0.304620000000     0.099000000000     0          
C1755    C      0.324870000000     0.324870000000     0.095000000000     0          
C1756    C      0.349680000000     0.349680000000     0.091500000000     0          
C1757    C      0.546350000000     0.621690000000     0.046350000000     0          
C1758    C      0.519900000000     0.617230000000     0.019900000000     0          
C1759    C      0.470860000000     0.606200000000     0.970860000000     0          
C1760    C      0.445380000000     0.599000000000     0.945380000000     0          
C1761    C      0.425130000000     0.595000000000     0.925130000000     0          
C1762    C      0.400320000000     0.591500000000     0.900320000000     0          
C1763    C      0.546350000000     0.121690000000     0.546350000000     0          
C1764    C      0.519900000000     0.117230000000     0.519900000000     0          
C1765    C      0.470860000000     0.106200000000     0.470860000000     0          
C1766    C      0.445380000000     0.099000000000     0.445380000000     0          
C1767    C      0.425130000000     0.095000000000     0.425130000000     0          
C1768    C      0.400320000000     0.091500000000     0.400320000000     0          
C1769    C      0.046350000000     0.128310000000     0.203650000000     0          
C1770    C      0.019900000000     0.132770000000     0.230100000000     0          
C1771    C      0.970860000000     0.143800000000     0.279140000000     0          
C1772    C      0.945380000000     0.151000000000     0.304620000000     0          
C1773    C      0.925130000000     0.155000000000     0.324870000000     0          
C1774    C      0.900320000000     0.158500000000     0.349680000000     0          
C1775    C      0.046350000000     0.628310000000     0.703650000000     0          
C1776    C      0.019900000000     0.632770000000     0.730100000000     0          
C1777    C      0.970860000000     0.643800000000     0.779140000000     0          
C1778    C      0.945380000000     0.651000000000     0.804620000000     0          
C1779    C      0.925130000000     0.655000000000     0.824870000000     0          
C1780    C      0.900320000000     0.658500000000     0.849680000000     0          
C1781    C      0.703650000000     0.121690000000     0.703650000000     0          
C1782    C      0.730100000000     0.117230000000     0.730100000000     0          
C1783    C      0.779140000000     0.106200000000     0.779140000000     0          
C1784    C      0.804620000000     0.099000000000     0.804620000000     0          
C1785    C      0.824870000000     0.095000000000     0.824870000000     0          
C1786    C      0.849680000000     0.091500000000     0.849680000000     0          
C1787    C      0.703650000000     0.621690000000     0.203650000000     0          
C1788    C      0.730100000000     0.617230000000     0.230100000000     0          
C1789    C      0.779140000000     0.606200000000     0.279140000000     0          
C1790    C      0.804620000000     0.599000000000     0.304620000000     0          
C1791    C      0.824870000000     0.595000000000     0.324870000000     0          
C1792    C      0.849680000000     0.591500000000     0.349680000000     0          
C1793    C      0.203650000000     0.121690000000     0.203650000000     0          
C1794    C      0.230100000000     0.117230000000     0.230100000000     0          
C1795    C      0.279140000000     0.106200000000     0.279140000000     0          
C1796    C      0.304620000000     0.099000000000     0.304620000000     0          
C1797    C      0.324870000000     0.095000000000     0.324870000000     0          
C1798    C      0.349680000000     0.091500000000     0.349680000000     0          
C1799    C      0.203650000000     0.621690000000     0.703650000000     0          
C1800    C      0.230100000000     0.617230000000     0.730100000000     0          
C1801    C      0.279140000000     0.606200000000     0.779140000000     0          
C1802    C      0.304620000000     0.599000000000     0.804620000000     0          
C1803    C      0.324870000000     0.595000000000     0.824870000000     0          
C1804    C      0.349680000000     0.591500000000     0.849680000000     0          
C1805    C      0.203650000000     0.628310000000     0.546350000000     0          
C1806    C      0.230100000000     0.632770000000     0.519900000000     0          
C1807    C      0.279140000000     0.643800000000     0.470860000000     0          
C1808    C      0.304620000000     0.651000000000     0.445380000000     0          
C1809    C      0.324870000000     0.655000000000     0.425130000000     0          
C1810    C      0.349680000000     0.658500000000     0.400320000000     0          
C1811    C      0.703650000000     0.628310000000     0.046350000000     0          
C1812    C      0.730100000000     0.632770000000     0.019900000000     0          
C1813    C      0.779140000000     0.643800000000     0.970860000000     0          
C1814    C      0.804620000000     0.651000000000     0.945380000000     0          
C1815    C      0.824870000000     0.655000000000     0.925130000000     0          
C1816    C      0.849680000000     0.658500000000     0.900320000000     0          
C1817    C      0.546350000000     0.628310000000     0.203650000000     0          
C1818    C      0.519900000000     0.632770000000     0.230100000000     0          
C1819    C      0.470860000000     0.643800000000     0.279140000000     0          
C1820    C      0.445380000000     0.651000000000     0.304620000000     0          
C1821    C      0.425130000000     0.655000000000     0.324870000000     0          
C1822    C      0.400320000000     0.658500000000     0.349680000000     0          
C1823    C      0.546350000000     0.128310000000     0.703650000000     0          
C1824    C      0.519900000000     0.132770000000     0.730100000000     0          
C1825    C      0.470860000000     0.143800000000     0.779140000000     0          
C1826    C      0.445380000000     0.151000000000     0.804620000000     0          
C1827    C      0.425130000000     0.155000000000     0.824870000000     0          
C1828    C      0.400320000000     0.158500000000     0.849680000000     0          
C1829    C      0.203650000000     0.128310000000     0.046350000000     0          
C1830    C      0.230100000000     0.132770000000     0.019900000000     0          
C1831    C      0.279140000000     0.143800000000     0.970860000000     0          
C1832    C      0.304620000000     0.151000000000     0.945380000000     0          
C1833    C      0.324870000000     0.155000000000     0.925130000000     0          
C1834    C      0.349680000000     0.158500000000     0.900320000000     0          
C1835    C      0.703650000000     0.128310000000     0.546350000000     0          
C1836    C      0.730100000000     0.132770000000     0.519900000000     0          
C1837    C      0.779140000000     0.143800000000     0.470860000000     0          
C1838    C      0.804620000000     0.151000000000     0.445380000000     0          
C1839    C      0.824870000000     0.155000000000     0.425130000000     0          
C1840    C      0.849680000000     0.158500000000     0.400320000000     0          
C1841    C      0.046350000000     0.621690000000     0.546350000000     0          
C1842    C      0.019900000000     0.617230000000     0.519900000000     0          
C1843    C      0.970860000000     0.606200000000     0.470860000000     0          
C1844    C      0.945380000000     0.599000000000     0.445380000000     0          
C1845    C      0.925130000000     0.595000000000     0.425130000000     0          
C1846    C      0.900320000000     0.591500000000     0.400320000000     0          
C1847    C      0.046350000000     0.121690000000     0.046350000000     0          
C1848    C      0.019900000000     0.117230000000     0.019900000000     0          
C1849    C      0.970860000000     0.106200000000     0.970860000000     0          
C1850    C      0.945380000000     0.099000000000     0.945380000000     0          
C1851    C      0.925130000000     0.095000000000     0.925130000000     0          
C1852    C      0.900320000000     0.091500000000     0.900320000000     0          
C1853    C      0.203650000000     0.546350000000     0.628310000000     0          
C1854    C      0.230100000000     0.519900000000     0.632770000000     0          
C1855    C      0.279140000000     0.470860000000     0.643800000000     0          
C1856    C      0.304620000000     0.445380000000     0.651000000000     0          
C1857    C      0.324870000000     0.425130000000     0.655000000000     0          
C1858    C      0.349680000000     0.400320000000     0.658500000000     0          
C1859    C      0.703650000000     0.546350000000     0.128310000000     0          
C1860    C      0.730100000000     0.519900000000     0.132770000000     0          
C1861    C      0.779140000000     0.470860000000     0.143800000000     0          
C1862    C      0.804620000000     0.445380000000     0.151000000000     0          
C1863    C      0.824870000000     0.425130000000     0.155000000000     0          
C1864    C      0.849680000000     0.400320000000     0.158500000000     0          
C1865    C      0.046350000000     0.203650000000     0.128310000000     0          
C1866    C      0.019900000000     0.230100000000     0.132770000000     0          
C1867    C      0.970860000000     0.279140000000     0.143800000000     0          
C1868    C      0.945380000000     0.304620000000     0.151000000000     0          
C1869    C      0.925130000000     0.324870000000     0.155000000000     0          
C1870    C      0.900320000000     0.349680000000     0.158500000000     0          
C1871    C      0.046350000000     0.703650000000     0.628310000000     0          
C1872    C      0.019900000000     0.730100000000     0.632770000000     0          
C1873    C      0.970860000000     0.779140000000     0.643800000000     0          
C1874    C      0.945380000000     0.804620000000     0.651000000000     0          
C1875    C      0.925130000000     0.824870000000     0.655000000000     0          
C1876    C      0.900320000000     0.849680000000     0.658500000000     0          
C1877    C      0.546350000000     0.046350000000     0.621690000000     0          
C1878    C      0.519900000000     0.019900000000     0.617230000000     0          
C1879    C      0.470860000000     0.970860000000     0.606200000000     0          
C1880    C      0.445380000000     0.945380000000     0.599000000000     0          
C1881    C      0.425130000000     0.925130000000     0.595000000000     0          
C1882    C      0.400320000000     0.900320000000     0.591500000000     0          
C1883    C      0.546350000000     0.546350000000     0.121690000000     0          
C1884    C      0.519900000000     0.519900000000     0.117230000000     0          
C1885    C      0.470860000000     0.470860000000     0.106200000000     0          
C1886    C      0.445380000000     0.445380000000     0.099000000000     0          
C1887    C      0.425130000000     0.425130000000     0.095000000000     0          
C1888    C      0.400320000000     0.400320000000     0.091500000000     0          
C1889    C      0.628310000000     0.203650000000     0.546350000000     0          
C1890    C      0.632770000000     0.230100000000     0.519900000000     0          
C1891    C      0.643800000000     0.279140000000     0.470860000000     0          
C1892    C      0.651000000000     0.304620000000     0.445380000000     0          
C1893    C      0.655000000000     0.324870000000     0.425130000000     0          
C1894    C      0.658500000000     0.349680000000     0.400320000000     0          
C1895    C      0.628310000000     0.703650000000     0.046350000000     0          
C1896    C      0.632770000000     0.730100000000     0.019900000000     0          
C1897    C      0.643800000000     0.779140000000     0.970860000000     0          
C1898    C      0.651000000000     0.804620000000     0.945380000000     0          
C1899    C      0.655000000000     0.824870000000     0.925130000000     0          
C1900    C      0.658500000000     0.849680000000     0.900320000000     0          
C1901    C      0.128310000000     0.046350000000     0.203650000000     0          
C1902    C      0.132770000000     0.019900000000     0.230100000000     0          
C1903    C      0.143800000000     0.970860000000     0.279140000000     0          
C1904    C      0.151000000000     0.945380000000     0.304620000000     0          
C1905    C      0.155000000000     0.925130000000     0.324870000000     0          
C1906    C      0.158500000000     0.900320000000     0.349680000000     0          
C1907    C      0.128310000000     0.546350000000     0.703650000000     0          
C1908    C      0.132770000000     0.519900000000     0.730100000000     0          
C1909    C      0.143800000000     0.470860000000     0.779140000000     0          
C1910    C      0.151000000000     0.445380000000     0.804620000000     0          
C1911    C      0.155000000000     0.425130000000     0.824870000000     0          
C1912    C      0.158500000000     0.400320000000     0.849680000000     0          
C1913    C      0.621690000000     0.546350000000     0.046350000000     0          
C1914    C      0.617230000000     0.519900000000     0.019900000000     0          
C1915    C      0.606200000000     0.470860000000     0.970860000000     0          
C1916    C      0.599000000000     0.445380000000     0.945380000000     0          
C1917    C      0.595000000000     0.425130000000     0.925130000000     0          
C1918    C      0.591500000000     0.400320000000     0.900320000000     0          
C1919    C      0.121690000000     0.546350000000     0.546350000000     0          
C1920    C      0.117230000000     0.519900000000     0.519900000000     0          
C1921    C      0.106200000000     0.470860000000     0.470860000000     0          
C1922    C      0.099000000000     0.445380000000     0.445380000000     0          
C1923    C      0.095000000000     0.425130000000     0.425130000000     0          
C1924    C      0.091500000000     0.400320000000     0.400320000000     0          
C1925    C      0.371690000000     0.453650000000     0.796350000000     0          
C1926    C      0.367230000000     0.480100000000     0.769900000000     0          
C1927    C      0.356200000000     0.529140000000     0.720860000000     0          
C1928    C      0.349000000000     0.554620000000     0.695380000000     0          
C1929    C      0.345000000000     0.574870000000     0.675130000000     0          
C1930    C      0.341500000000     0.599680000000     0.650320000000     0          
C1931    C      0.371690000000     0.953650000000     0.296350000000     0          
C1932    C      0.367230000000     0.980100000000     0.269900000000     0          
C1933    C      0.356200000000     0.029140000000     0.220860000000     0          
C1934    C      0.349000000000     0.054620000000     0.195380000000     0          
C1935    C      0.345000000000     0.074870000000     0.175130000000     0          
C1936    C      0.341500000000     0.099680000000     0.150320000000     0          
C1937    C      0.378310000000     0.953650000000     0.453650000000     0          
C1938    C      0.382770000000     0.980100000000     0.480100000000     0          
C1939    C      0.393800000000     0.029140000000     0.529140000000     0          
C1940    C      0.401000000000     0.054620000000     0.554620000000     0          
C1941    C      0.405000000000     0.074870000000     0.574870000000     0          
C1942    C      0.408500000000     0.099680000000     0.599680000000     0          
C1943    C      0.878310000000     0.953650000000     0.953650000000     0          
C1944    C      0.882770000000     0.980100000000     0.980100000000     0          
C1945    C      0.893800000000     0.029140000000     0.029140000000     0          
C1946    C      0.901000000000     0.054620000000     0.054620000000     0          
C1947    C      0.905000000000     0.074870000000     0.074870000000     0          
C1948    C      0.908500000000     0.099680000000     0.099680000000     0          
C1949    C      0.871690000000     0.796350000000     0.953650000000     0          
C1950    C      0.867230000000     0.769900000000     0.980100000000     0          
C1951    C      0.856200000000     0.720860000000     0.029140000000     0          
C1952    C      0.849000000000     0.695380000000     0.054620000000     0          
C1953    C      0.845000000000     0.675130000000     0.074870000000     0          
C1954    C      0.841500000000     0.650320000000     0.099680000000     0          
C1955    C      0.871690000000     0.296350000000     0.453650000000     0          
C1956    C      0.867230000000     0.269900000000     0.480100000000     0          
C1957    C      0.856200000000     0.220860000000     0.529140000000     0          
C1958    C      0.849000000000     0.195380000000     0.554620000000     0          
C1959    C      0.845000000000     0.175130000000     0.574870000000     0          
C1960    C      0.841500000000     0.150320000000     0.599680000000     0          
C1961    C      0.796350000000     0.953650000000     0.871690000000     0          
C1962    C      0.769900000000     0.980100000000     0.867230000000     0          
C1963    C      0.720860000000     0.029140000000     0.856200000000     0          
C1964    C      0.695380000000     0.054620000000     0.849000000000     0          
C1965    C      0.675130000000     0.074870000000     0.845000000000     0          
C1966    C      0.650320000000     0.099680000000     0.841500000000     0          
C1967    C      0.296350000000     0.953650000000     0.371690000000     0          
C1968    C      0.269900000000     0.980100000000     0.367230000000     0          
C1969    C      0.220860000000     0.029140000000     0.356200000000     0          
C1970    C      0.195380000000     0.054620000000     0.349000000000     0          
C1971    C      0.175130000000     0.074870000000     0.345000000000     0          
C1972    C      0.150320000000     0.099680000000     0.341500000000     0          
C1973    C      0.953650000000     0.453650000000     0.378310000000     0          
C1974    C      0.980100000000     0.480100000000     0.382770000000     0          
C1975    C      0.029140000000     0.529140000000     0.393800000000     0          
C1976    C      0.054620000000     0.554620000000     0.401000000000     0          
C1977    C      0.074870000000     0.574870000000     0.405000000000     0          
C1978    C      0.099680000000     0.599680000000     0.408500000000     0          
C1979    C      0.953650000000     0.953650000000     0.878310000000     0          
C1980    C      0.980100000000     0.980100000000     0.882770000000     0          
C1981    C      0.029140000000     0.029140000000     0.893800000000     0          
C1982    C      0.054620000000     0.054620000000     0.901000000000     0          
C1983    C      0.074870000000     0.074870000000     0.905000000000     0          
C1984    C      0.099680000000     0.099680000000     0.908500000000     0          
C1985    C      0.453650000000     0.796350000000     0.371690000000     0          
C1986    C      0.480100000000     0.769900000000     0.367230000000     0          
C1987    C      0.529140000000     0.720860000000     0.356200000000     0          
C1988    C      0.554620000000     0.695380000000     0.349000000000     0          
C1989    C      0.574870000000     0.675130000000     0.345000000000     0          
C1990    C      0.599680000000     0.650320000000     0.341500000000     0          
C1991    C      0.453650000000     0.296350000000     0.871690000000     0          
C1992    C      0.480100000000     0.269900000000     0.867230000000     0          
C1993    C      0.529140000000     0.220860000000     0.856200000000     0          
C1994    C      0.554620000000     0.195380000000     0.849000000000     0          
C1995    C      0.574870000000     0.175130000000     0.845000000000     0          
C1996    C      0.599680000000     0.150320000000     0.841500000000     0          
C1997    C      0.453650000000     0.378310000000     0.953650000000     0          
C1998    C      0.480100000000     0.382770000000     0.980100000000     0          
C1999    C      0.529140000000     0.393800000000     0.029140000000     0          
C2000    C      0.554620000000     0.401000000000     0.054620000000     0          
C2001    C      0.574870000000     0.405000000000     0.074870000000     0          
C2002    C      0.599680000000     0.408500000000     0.099680000000     0          
C2003    C      0.453650000000     0.878310000000     0.453650000000     0          
C2004    C      0.480100000000     0.882770000000     0.480100000000     0          
C2005    C      0.529140000000     0.893800000000     0.529140000000     0          
C2006    C      0.554620000000     0.901000000000     0.554620000000     0          
C2007    C      0.574870000000     0.905000000000     0.574870000000     0          
C2008    C      0.599680000000     0.908500000000     0.599680000000     0          
C2009    C      0.953650000000     0.871690000000     0.796350000000     0          
C2010    C      0.980100000000     0.867230000000     0.769900000000     0          
C2011    C      0.029140000000     0.856200000000     0.720860000000     0          
C2012    C      0.054620000000     0.849000000000     0.695380000000     0          
C2013    C      0.074870000000     0.845000000000     0.675130000000     0          
C2014    C      0.099680000000     0.841500000000     0.650320000000     0          
C2015    C      0.953650000000     0.371690000000     0.296350000000     0          
C2016    C      0.980100000000     0.367230000000     0.269900000000     0          
C2017    C      0.029140000000     0.356200000000     0.220860000000     0          
C2018    C      0.054620000000     0.349000000000     0.195380000000     0          
C2019    C      0.074870000000     0.345000000000     0.175130000000     0          
C2020    C      0.099680000000     0.341500000000     0.150320000000     0          
C2021    C      0.796350000000     0.371690000000     0.453650000000     0          
C2022    C      0.769900000000     0.367230000000     0.480100000000     0          
C2023    C      0.720860000000     0.356200000000     0.529140000000     0          
C2024    C      0.695380000000     0.349000000000     0.554620000000     0          
C2025    C      0.675130000000     0.345000000000     0.574870000000     0          
C2026    C      0.650320000000     0.341500000000     0.599680000000     0          
C2027    C      0.296350000000     0.371690000000     0.953650000000     0          
C2028    C      0.269900000000     0.367230000000     0.980100000000     0          
C2029    C      0.220860000000     0.356200000000     0.029140000000     0          
C2030    C      0.195380000000     0.349000000000     0.054620000000     0          
C2031    C      0.175130000000     0.345000000000     0.074870000000     0          
C2032    C      0.150320000000     0.341500000000     0.099680000000     0          


