data_XAPFOM

_audit_creation_method RASPA-1.0
_audit_creation_date 2020-11-2
_audit_author_name 'Rocio Bueno-Perez'

_cell_length_a    23.8649
_cell_length_b    23.8649
_cell_length_c    23.8649
_cell_angle_alpha 90
_cell_angle_beta  90
_cell_angle_gamma 90
_cell_volume      13591.9

_symmetry_cell_setting          triclinic
_symmetry_space_group_name_Hall 'P 1'
_symmetry_space_group_name_H-M  'P 1'
_symmetry_Int_Tables_number     1

_symmetry_equiv_pos_as_xyz 'x,y,z'

loop_
_atom_site_label
_atom_site_type_symbol
_atom_site_fract_x
_atom_site_fract_y
_atom_site_fract_z
_atom_site_charge
Zr1      Zr     0.603180000000     0.005900000000     0.507440000000     0          
O2       O      0.643680000000     0.089600000000     0.513490000000     0          
O3       O      0.570100000000     0.154600000000     0.513780000000     0          
C4       C      0.621700000000     0.140000000000     0.513500000000     0          
C5       C      0.663100000000     0.187700000000     0.514500000000     0          
C6       C      0.717100000000     0.177900000000     0.515500000000     0          
H7       H      0.729900000000     0.140200000000     0.516800000000     0          
C8       C      0.758500000000     0.223100000000     0.514700000000     0          
O9       O      0.642800000000     0.011000000000     0.590900000000     0          
O10      O      0.571100000000     0.005400000000     0.653900000000     0          
O11      O      0.551410000000     0.058500000000     0.564900000000     0          
C12      C      0.664500000000     0.010900000000     0.685200000000     0          
C13      C      0.719000000000     0.016200000000     0.675800000000     0          
H14      H      0.733100000000     0.019800000000     0.638700000000     0          
C15      C      0.756800000000     0.016600000000     0.723600000000     0          
C16      C      0.622800000000     0.008200000000     0.638500000000     0          
Zr17     Zr     0.896820000000     0.494100000000     0.507440000000     0          
O18      O      0.856320000000     0.410400000000     0.513490000000     0          
O19      O      0.929900000000     0.345400000000     0.513780000000     0          
C20      C      0.878300000000     0.360000000000     0.513500000000     0          
C21      C      0.836900000000     0.312300000000     0.514500000000     0          
C22      C      0.782900000000     0.322100000000     0.515500000000     0          
H23      H      0.770100000000     0.359800000000     0.516800000000     0          
C24      C      0.741500000000     0.276900000000     0.514700000000     0          
C25      C      0.810200000000     0.217100000000     0.513100000000     0          
C26      C      0.850500000000     0.260000000000     0.511900000000     0          
H27      H      0.823900000000     0.179700000000     0.512700000000     0          
H28      H      0.889000000000     0.250200000000     0.509100000000     0          
O29      O      0.857200000000     0.489000000000     0.590900000000     0          
O30      O      0.928900000000     0.494600000000     0.653900000000     0          
O31      O      0.948590000000     0.441500000000     0.564900000000     0          
C32      C      0.835500000000     0.489100000000     0.685200000000     0          
C33      C      0.781000000000     0.483800000000     0.675800000000     0          
H34      H      0.766900000000     0.480200000000     0.638700000000     0          
C35      C      0.743200000000     0.483400000000     0.723600000000     0          
C36      C      0.811100000000     0.488000000000     0.782900000000     0          
H37      H      0.825000000000     0.490700000000     0.820100000000     0          
C38      C      0.850800000000     0.489300000000     0.738500000000     0          
H39      H      0.889600000000     0.490200000000     0.747300000000     0          
C40      C      0.877200000000     0.491800000000     0.638500000000     0          
Zr41     Zr     0.896820000000     0.005900000000     0.992560000000     0          
O42      O      0.856320000000     0.089600000000     0.986510000000     0          
O43      O      0.929900000000     0.154600000000     0.986220000000     0          
C44      C      0.878300000000     0.140000000000     0.986500000000     0          
C45      C      0.836900000000     0.187700000000     0.985500000000     0          
C46      C      0.782900000000     0.177900000000     0.984500000000     0          
H47      H      0.770100000000     0.140200000000     0.983200000000     0          
C48      C      0.741500000000     0.223100000000     0.985300000000     0          
O49      O      0.857200000000     0.011000000000     0.909100000000     0          
O50      O      0.928900000000     0.005400000000     0.846100000000     0          
O51      O      0.948590000000     0.058500000000     0.935100000000     0          
C52      C      0.835500000000     0.010900000000     0.814800000000     0          
C53      C      0.781000000000     0.016200000000     0.824200000000     0          
H54      H      0.766900000000     0.019800000000     0.861300000000     0          
C55      C      0.743200000000     0.016600000000     0.776400000000     0          
C56      C      0.811100000000     0.012000000000     0.717100000000     0          
H57      H      0.825000000000     0.009300000000     0.679900000000     0          
C58      C      0.850800000000     0.010700000000     0.761500000000     0          
H59      H      0.889600000000     0.009800000000     0.752700000000     0          
C60      C      0.877200000000     0.008200000000     0.861500000000     0          
Zr61     Zr     0.603180000000     0.494100000000     0.992560000000     0          
O62      O      0.643680000000     0.410400000000     0.986510000000     0          
O63      O      0.570100000000     0.345400000000     0.986220000000     0          
C64      C      0.621700000000     0.360000000000     0.986500000000     0          
C65      C      0.663100000000     0.312300000000     0.985500000000     0          
C66      C      0.717100000000     0.322100000000     0.984500000000     0          
H67      H      0.729900000000     0.359800000000     0.983200000000     0          
C68      C      0.758500000000     0.276900000000     0.985300000000     0          
C69      C      0.689800000000     0.217100000000     0.986900000000     0          
C70      C      0.649500000000     0.260000000000     0.988100000000     0          
H71      H      0.676100000000     0.179700000000     0.987300000000     0          
H72      H      0.611000000000     0.250200000000     0.990900000000     0          
O73      O      0.642800000000     0.489000000000     0.909100000000     0          
O74      O      0.571100000000     0.494600000000     0.846100000000     0          
O75      O      0.551410000000     0.441500000000     0.935100000000     0          
C76      C      0.664500000000     0.489100000000     0.814800000000     0          
C77      C      0.719000000000     0.483800000000     0.824200000000     0          
H78      H      0.733100000000     0.480200000000     0.861300000000     0          
C79      C      0.756800000000     0.483400000000     0.776400000000     0          
C80      C      0.622800000000     0.491800000000     0.861500000000     0          
Zr81     Zr     0.507440000000     0.603180000000     0.005900000000     0          
O82      O      0.513490000000     0.643680000000     0.089600000000     0          
O83      O      0.513780000000     0.570100000000     0.154600000000     0          
C84      C      0.513500000000     0.621700000000     0.140000000000     0          
C85      C      0.514500000000     0.663100000000     0.187700000000     0          
C86      C      0.515500000000     0.717100000000     0.177900000000     0          
H87      H      0.516800000000     0.729900000000     0.140200000000     0          
C88      C      0.514700000000     0.758500000000     0.223100000000     0          
O89      O      0.590900000000     0.642800000000     0.011000000000     0          
O90      O      0.653900000000     0.571100000000     0.005400000000     0          
O91      O      0.564900000000     0.551410000000     0.058500000000     0          
C92      C      0.685200000000     0.664500000000     0.010900000000     0          
C93      C      0.675800000000     0.719000000000     0.016200000000     0          
H94      H      0.638700000000     0.733100000000     0.019800000000     0          
C95      C      0.723600000000     0.756800000000     0.016600000000     0          
C96      C      0.782900000000     0.688900000000     0.012000000000     0          
H97      H      0.820100000000     0.675000000000     0.009300000000     0          
C98      C      0.738500000000     0.649200000000     0.010700000000     0          
H99      H      0.747300000000     0.610400000000     0.009800000000     0          
C100     C      0.638500000000     0.622800000000     0.008200000000     0          
Zr101    Zr     0.507440000000     0.896820000000     0.494100000000     0          
O102     O      0.513490000000     0.856320000000     0.410400000000     0          
O103     O      0.513780000000     0.929900000000     0.345400000000     0          
C104     C      0.513500000000     0.878300000000     0.360000000000     0          
C105     C      0.514500000000     0.836900000000     0.312300000000     0          
C106     C      0.515500000000     0.782900000000     0.322100000000     0          
H107     H      0.516800000000     0.770100000000     0.359800000000     0          
C108     C      0.514700000000     0.741500000000     0.276900000000     0          
C109     C      0.513100000000     0.810200000000     0.217100000000     0          
C110     C      0.511900000000     0.850500000000     0.260000000000     0          
H111     H      0.512700000000     0.823900000000     0.179700000000     0          
H112     H      0.509100000000     0.889000000000     0.250200000000     0          
O113     O      0.590900000000     0.857200000000     0.489000000000     0          
O114     O      0.653900000000     0.928900000000     0.494600000000     0          
O115     O      0.564900000000     0.948590000000     0.441500000000     0          
C116     C      0.685200000000     0.835500000000     0.489100000000     0          
C117     C      0.675800000000     0.781000000000     0.483800000000     0          
H118     H      0.638700000000     0.766900000000     0.480200000000     0          
C119     C      0.723600000000     0.743200000000     0.483400000000     0          
C120     C      0.782900000000     0.811100000000     0.488000000000     0          
H121     H      0.820100000000     0.825000000000     0.490700000000     0          
C122     C      0.738500000000     0.850800000000     0.489300000000     0          
H123     H      0.747300000000     0.889600000000     0.490200000000     0          
C124     C      0.638500000000     0.877200000000     0.491800000000     0          
Zr125    Zr     0.992560000000     0.896820000000     0.005900000000     0          
O126     O      0.986510000000     0.856320000000     0.089600000000     0          
O127     O      0.986220000000     0.929900000000     0.154600000000     0          
C128     C      0.986500000000     0.878300000000     0.140000000000     0          
C129     C      0.985500000000     0.836900000000     0.187700000000     0          
C130     C      0.984500000000     0.782900000000     0.177900000000     0          
H131     H      0.983200000000     0.770100000000     0.140200000000     0          
C132     C      0.985300000000     0.741500000000     0.223100000000     0          
O133     O      0.909100000000     0.857200000000     0.011000000000     0          
O134     O      0.846100000000     0.928900000000     0.005400000000     0          
O135     O      0.935100000000     0.948590000000     0.058500000000     0          
C136     C      0.814800000000     0.835500000000     0.010900000000     0          
C137     C      0.824200000000     0.781000000000     0.016200000000     0          
H138     H      0.861300000000     0.766900000000     0.019800000000     0          
C139     C      0.776400000000     0.743200000000     0.016600000000     0          
C140     C      0.861500000000     0.877200000000     0.008200000000     0          
Zr141    Zr     0.992560000000     0.603180000000     0.494100000000     0          
O142     O      0.986510000000     0.643680000000     0.410400000000     0          
O143     O      0.986220000000     0.570100000000     0.345400000000     0          
C144     C      0.986500000000     0.621700000000     0.360000000000     0          
C145     C      0.985500000000     0.663100000000     0.312300000000     0          
C146     C      0.984500000000     0.717100000000     0.322100000000     0          
H147     H      0.983200000000     0.729900000000     0.359800000000     0          
C148     C      0.985300000000     0.758500000000     0.276900000000     0          
C149     C      0.986900000000     0.689800000000     0.217100000000     0          
C150     C      0.988100000000     0.649500000000     0.260000000000     0          
H151     H      0.987300000000     0.676100000000     0.179700000000     0          
H152     H      0.990900000000     0.611000000000     0.250200000000     0          
O153     O      0.909100000000     0.642800000000     0.489000000000     0          
O154     O      0.846100000000     0.571100000000     0.494600000000     0          
O155     O      0.935100000000     0.551410000000     0.441500000000     0          
C156     C      0.814800000000     0.664500000000     0.489100000000     0          
C157     C      0.824200000000     0.719000000000     0.483800000000     0          
H158     H      0.861300000000     0.733100000000     0.480200000000     0          
C159     C      0.776400000000     0.756800000000     0.483400000000     0          
C160     C      0.861500000000     0.622800000000     0.491800000000     0          
Zr161    Zr     0.005900000000     0.507440000000     0.603180000000     0          
O162     O      0.089600000000     0.513490000000     0.643680000000     0          
O163     O      0.154600000000     0.513780000000     0.570100000000     0          
C164     C      0.140000000000     0.513500000000     0.621700000000     0          
C165     C      0.187700000000     0.514500000000     0.663100000000     0          
C166     C      0.177900000000     0.515500000000     0.717100000000     0          
H167     H      0.140200000000     0.516800000000     0.729900000000     0          
C168     C      0.223100000000     0.514700000000     0.758500000000     0          
O169     O      0.011000000000     0.590900000000     0.642800000000     0          
O170     O      0.005400000000     0.653900000000     0.571100000000     0          
O171     O      0.058500000000     0.564900000000     0.551410000000     0          
C172     C      0.010900000000     0.685200000000     0.664500000000     0          
C173     C      0.016200000000     0.675800000000     0.719000000000     0          
H174     H      0.019800000000     0.638700000000     0.733100000000     0          
C175     C      0.016600000000     0.723600000000     0.756800000000     0          
C176     C      0.012000000000     0.782900000000     0.688900000000     0          
H177     H      0.009300000000     0.820100000000     0.675000000000     0          
C178     C      0.010700000000     0.738500000000     0.649200000000     0          
H179     H      0.009800000000     0.747300000000     0.610400000000     0          
C180     C      0.008200000000     0.638500000000     0.622800000000     0          
Zr181    Zr     0.494100000000     0.507440000000     0.896820000000     0          
O182     O      0.410400000000     0.513490000000     0.856320000000     0          
O183     O      0.345400000000     0.513780000000     0.929900000000     0          
C184     C      0.360000000000     0.513500000000     0.878300000000     0          
C185     C      0.312300000000     0.514500000000     0.836900000000     0          
C186     C      0.322100000000     0.515500000000     0.782900000000     0          
H187     H      0.359800000000     0.516800000000     0.770100000000     0          
C188     C      0.276900000000     0.514700000000     0.741500000000     0          
C189     C      0.217100000000     0.513100000000     0.810200000000     0          
C190     C      0.260000000000     0.511900000000     0.850500000000     0          
H191     H      0.179700000000     0.512700000000     0.823900000000     0          
H192     H      0.250200000000     0.509100000000     0.889000000000     0          
O193     O      0.489000000000     0.590900000000     0.857200000000     0          
O194     O      0.494600000000     0.653900000000     0.928900000000     0          
O195     O      0.441500000000     0.564900000000     0.948590000000     0          
C196     C      0.489100000000     0.685200000000     0.835500000000     0          
C197     C      0.483800000000     0.675800000000     0.781000000000     0          
H198     H      0.480200000000     0.638700000000     0.766900000000     0          
C199     C      0.483400000000     0.723600000000     0.743200000000     0          
C200     C      0.491800000000     0.638500000000     0.877200000000     0          
Zr201    Zr     0.005900000000     0.992560000000     0.896820000000     0          
O202     O      0.089600000000     0.986510000000     0.856320000000     0          
O203     O      0.154600000000     0.986220000000     0.929900000000     0          
C204     C      0.140000000000     0.986500000000     0.878300000000     0          
C205     C      0.187700000000     0.985500000000     0.836900000000     0          
C206     C      0.177900000000     0.984500000000     0.782900000000     0          
H207     H      0.140200000000     0.983200000000     0.770100000000     0          
C208     C      0.223100000000     0.985300000000     0.741500000000     0          
O209     O      0.011000000000     0.909100000000     0.857200000000     0          
O210     O      0.005400000000     0.846100000000     0.928900000000     0          
O211     O      0.058500000000     0.935100000000     0.948590000000     0          
C212     C      0.010900000000     0.814800000000     0.835500000000     0          
C213     C      0.016200000000     0.824200000000     0.781000000000     0          
H214     H      0.019800000000     0.861300000000     0.766900000000     0          
C215     C      0.016600000000     0.776400000000     0.743200000000     0          
C216     C      0.008200000000     0.861500000000     0.877200000000     0          
Zr217    Zr     0.494100000000     0.992560000000     0.603180000000     0          
O218     O      0.410400000000     0.986510000000     0.643680000000     0          
O219     O      0.345400000000     0.986220000000     0.570100000000     0          
C220     C      0.360000000000     0.986500000000     0.621700000000     0          
C221     C      0.312300000000     0.985500000000     0.663100000000     0          
C222     C      0.322100000000     0.984500000000     0.717100000000     0          
H223     H      0.359800000000     0.983200000000     0.729900000000     0          
C224     C      0.276900000000     0.985300000000     0.758500000000     0          
C225     C      0.217100000000     0.986900000000     0.689800000000     0          
C226     C      0.260000000000     0.988100000000     0.649500000000     0          
H227     H      0.179700000000     0.987300000000     0.676100000000     0          
H228     H      0.250200000000     0.990900000000     0.611000000000     0          
O229     O      0.489000000000     0.909100000000     0.642800000000     0          
O230     O      0.494600000000     0.846100000000     0.571100000000     0          
O231     O      0.441500000000     0.935100000000     0.551410000000     0          
C232     C      0.489100000000     0.814800000000     0.664500000000     0          
C233     C      0.483800000000     0.824200000000     0.719000000000     0          
H234     H      0.480200000000     0.861300000000     0.733100000000     0          
C235     C      0.483400000000     0.776400000000     0.756800000000     0          
C236     C      0.488000000000     0.717100000000     0.688900000000     0          
H237     H      0.490700000000     0.679900000000     0.675000000000     0          
C238     C      0.489300000000     0.761500000000     0.649200000000     0          
H239     H      0.490200000000     0.752700000000     0.610400000000     0          
C240     C      0.491800000000     0.861500000000     0.622800000000     0          
Zr241    Zr     0.396820000000     0.994100000000     0.492560000000     0          
O242     O      0.356320000000     0.910400000000     0.486510000000     0          
O243     O      0.429900000000     0.845400000000     0.486220000000     0          
C244     C      0.378300000000     0.860000000000     0.486500000000     0          
C245     C      0.336900000000     0.812300000000     0.485500000000     0          
C246     C      0.282900000000     0.822100000000     0.484500000000     0          
H247     H      0.270100000000     0.859800000000     0.483200000000     0          
C248     C      0.241500000000     0.776900000000     0.485300000000     0          
C249     C      0.310200000000     0.717100000000     0.486900000000     0          
C250     C      0.350500000000     0.760000000000     0.488100000000     0          
H251     H      0.323900000000     0.679700000000     0.487300000000     0          
H252     H      0.389000000000     0.750200000000     0.490900000000     0          
O253     O      0.357200000000     0.989000000000     0.409100000000     0          
O254     O      0.428900000000     0.994600000000     0.346100000000     0          
O255     O      0.448590000000     0.941500000000     0.435100000000     0          
C256     C      0.335500000000     0.989100000000     0.314800000000     0          
C257     C      0.281000000000     0.983800000000     0.324200000000     0          
H258     H      0.266900000000     0.980200000000     0.361300000000     0          
C259     C      0.243200000000     0.983400000000     0.276400000000     0          
C260     C      0.377200000000     0.991800000000     0.361500000000     0          
Zr261    Zr     0.103180000000     0.505900000000     0.492560000000     0          
O262     O      0.143680000000     0.589600000000     0.486510000000     0          
O263     O      0.070100000000     0.654600000000     0.486220000000     0          
C264     C      0.121700000000     0.640000000000     0.486500000000     0          
C265     C      0.163100000000     0.687700000000     0.485500000000     0          
C266     C      0.217100000000     0.677900000000     0.484500000000     0          
H267     H      0.229900000000     0.640200000000     0.483200000000     0          
C268     C      0.258500000000     0.723100000000     0.485300000000     0          
O269     O      0.142800000000     0.511000000000     0.409100000000     0          
O270     O      0.071100000000     0.505400000000     0.346100000000     0          
O271     O      0.051410000000     0.558500000000     0.435100000000     0          
C272     C      0.164500000000     0.510900000000     0.314800000000     0          
C273     C      0.219000000000     0.516200000000     0.324200000000     0          
H274     H      0.233100000000     0.519800000000     0.361300000000     0          
C275     C      0.256800000000     0.516600000000     0.276400000000     0          
C276     C      0.188900000000     0.512000000000     0.217100000000     0          
H277     H      0.175000000000     0.509300000000     0.179900000000     0          
C278     C      0.149200000000     0.510700000000     0.261500000000     0          
H279     H      0.110400000000     0.509800000000     0.252700000000     0          
C280     C      0.122800000000     0.508200000000     0.361500000000     0          
Zr281    Zr     0.103180000000     0.994100000000     0.007440000000     0          
O282     O      0.143680000000     0.910400000000     0.013490000000     0          
O283     O      0.070100000000     0.845400000000     0.013780000000     0          
C284     C      0.121700000000     0.860000000000     0.013500000000     0          
C285     C      0.163100000000     0.812300000000     0.014500000000     0          
C286     C      0.217100000000     0.822100000000     0.015500000000     0          
H287     H      0.229900000000     0.859800000000     0.016800000000     0          
C288     C      0.258500000000     0.776900000000     0.014700000000     0          
C289     C      0.189800000000     0.717100000000     0.013100000000     0          
C290     C      0.149500000000     0.760000000000     0.011900000000     0          
H291     H      0.176100000000     0.679700000000     0.012700000000     0          
H292     H      0.111000000000     0.750200000000     0.009100000000     0          
O293     O      0.142800000000     0.989000000000     0.090900000000     0          
O294     O      0.071100000000     0.994600000000     0.153900000000     0          
O295     O      0.051410000000     0.941500000000     0.064900000000     0          
C296     C      0.164500000000     0.989100000000     0.185200000000     0          
C297     C      0.219000000000     0.983800000000     0.175800000000     0          
H298     H      0.233100000000     0.980200000000     0.138700000000     0          
C299     C      0.256800000000     0.983400000000     0.223600000000     0          
C300     C      0.188900000000     0.988000000000     0.282900000000     0          
H301     H      0.175000000000     0.990700000000     0.320100000000     0          
C302     C      0.149200000000     0.989300000000     0.238500000000     0          
H303     H      0.110400000000     0.990200000000     0.247300000000     0          
C304     C      0.122800000000     0.991800000000     0.138500000000     0          
Zr305    Zr     0.396820000000     0.505900000000     0.007440000000     0          
O306     O      0.356320000000     0.589600000000     0.013490000000     0          
O307     O      0.429900000000     0.654600000000     0.013780000000     0          
C308     C      0.378300000000     0.640000000000     0.013500000000     0          
C309     C      0.336900000000     0.687700000000     0.014500000000     0          
C310     C      0.282900000000     0.677900000000     0.015500000000     0          
H311     H      0.270100000000     0.640200000000     0.016800000000     0          
C312     C      0.241500000000     0.723100000000     0.014700000000     0          
O313     O      0.357200000000     0.511000000000     0.090900000000     0          
O314     O      0.428900000000     0.505400000000     0.153900000000     0          
O315     O      0.448590000000     0.558500000000     0.064900000000     0          
C316     C      0.335500000000     0.510900000000     0.185200000000     0          
C317     C      0.281000000000     0.516200000000     0.175800000000     0          
H318     H      0.266900000000     0.519800000000     0.138700000000     0          
C319     C      0.243200000000     0.516600000000     0.223600000000     0          
C320     C      0.377200000000     0.508200000000     0.138500000000     0          
Zr321    Zr     0.492560000000     0.396820000000     0.994100000000     0          
O322     O      0.486510000000     0.356320000000     0.910400000000     0          
O323     O      0.486220000000     0.429900000000     0.845400000000     0          
C324     C      0.486500000000     0.378300000000     0.860000000000     0          
C325     C      0.485500000000     0.336900000000     0.812300000000     0          
C326     C      0.484500000000     0.282900000000     0.822100000000     0          
H327     H      0.483200000000     0.270100000000     0.859800000000     0          
C328     C      0.485300000000     0.241500000000     0.776900000000     0          
O329     O      0.409100000000     0.357200000000     0.989000000000     0          
O330     O      0.346100000000     0.428900000000     0.994600000000     0          
O331     O      0.435100000000     0.448590000000     0.941500000000     0          
C332     C      0.314800000000     0.335500000000     0.989100000000     0          
C333     C      0.324200000000     0.281000000000     0.983800000000     0          
H334     H      0.361300000000     0.266900000000     0.980200000000     0          
C335     C      0.276400000000     0.243200000000     0.983400000000     0          
C336     C      0.217100000000     0.311100000000     0.988000000000     0          
H337     H      0.179900000000     0.325000000000     0.990700000000     0          
C338     C      0.261500000000     0.350800000000     0.989300000000     0          
H339     H      0.252700000000     0.389600000000     0.990200000000     0          
C340     C      0.361500000000     0.377200000000     0.991800000000     0          
Zr341    Zr     0.492560000000     0.103180000000     0.505900000000     0          
O342     O      0.486510000000     0.143680000000     0.589600000000     0          
O343     O      0.486220000000     0.070100000000     0.654600000000     0          
C344     C      0.486500000000     0.121700000000     0.640000000000     0          
C345     C      0.485500000000     0.163100000000     0.687700000000     0          
C346     C      0.484500000000     0.217100000000     0.677900000000     0          
H347     H      0.483200000000     0.229900000000     0.640200000000     0          
C348     C      0.485300000000     0.258500000000     0.723100000000     0          
C349     C      0.486900000000     0.189800000000     0.782900000000     0          
C350     C      0.488100000000     0.149500000000     0.740000000000     0          
H351     H      0.487300000000     0.176100000000     0.820300000000     0          
H352     H      0.490900000000     0.111000000000     0.749800000000     0          
O353     O      0.409100000000     0.142800000000     0.511000000000     0          
O354     O      0.346100000000     0.071100000000     0.505400000000     0          
O355     O      0.435100000000     0.051410000000     0.558500000000     0          
C356     C      0.314800000000     0.164500000000     0.510900000000     0          
C357     C      0.324200000000     0.219000000000     0.516200000000     0          
H358     H      0.361300000000     0.233100000000     0.519800000000     0          
C359     C      0.276400000000     0.256800000000     0.516600000000     0          
C360     C      0.217100000000     0.188900000000     0.512000000000     0          
H361     H      0.179900000000     0.175000000000     0.509300000000     0          
C362     C      0.261500000000     0.149200000000     0.510700000000     0          
H363     H      0.252700000000     0.110400000000     0.509800000000     0          
C364     C      0.361500000000     0.122800000000     0.508200000000     0          
Zr365    Zr     0.007440000000     0.103180000000     0.994100000000     0          
O366     O      0.013490000000     0.143680000000     0.910400000000     0          
O367     O      0.013780000000     0.070100000000     0.845400000000     0          
C368     C      0.013500000000     0.121700000000     0.860000000000     0          
C369     C      0.014500000000     0.163100000000     0.812300000000     0          
C370     C      0.015500000000     0.217100000000     0.822100000000     0          
H371     H      0.016800000000     0.229900000000     0.859800000000     0          
C372     C      0.014700000000     0.258500000000     0.776900000000     0          
O373     O      0.090900000000     0.142800000000     0.989000000000     0          
O374     O      0.153900000000     0.071100000000     0.994600000000     0          
O375     O      0.064900000000     0.051410000000     0.941500000000     0          
C376     C      0.185200000000     0.164500000000     0.989100000000     0          
C377     C      0.175800000000     0.219000000000     0.983800000000     0          
H378     H      0.138700000000     0.233100000000     0.980200000000     0          
C379     C      0.223600000000     0.256800000000     0.983400000000     0          
C380     C      0.138500000000     0.122800000000     0.991800000000     0          
Zr381    Zr     0.007440000000     0.396820000000     0.505900000000     0          
O382     O      0.013490000000     0.356320000000     0.589600000000     0          
O383     O      0.013780000000     0.429900000000     0.654600000000     0          
C384     C      0.013500000000     0.378300000000     0.640000000000     0          
C385     C      0.014500000000     0.336900000000     0.687700000000     0          
C386     C      0.015500000000     0.282900000000     0.677900000000     0          
H387     H      0.016800000000     0.270100000000     0.640200000000     0          
C388     C      0.014700000000     0.241500000000     0.723100000000     0          
C389     C      0.013100000000     0.310200000000     0.782900000000     0          
C390     C      0.011900000000     0.350500000000     0.740000000000     0          
H391     H      0.012700000000     0.323900000000     0.820300000000     0          
H392     H      0.009100000000     0.389000000000     0.749800000000     0          
O393     O      0.090900000000     0.357200000000     0.511000000000     0          
O394     O      0.153900000000     0.428900000000     0.505400000000     0          
O395     O      0.064900000000     0.448590000000     0.558500000000     0          
C396     C      0.185200000000     0.335500000000     0.510900000000     0          
C397     C      0.175800000000     0.281000000000     0.516200000000     0          
H398     H      0.138700000000     0.266900000000     0.519800000000     0          
C399     C      0.223600000000     0.243200000000     0.516600000000     0          
C400     C      0.138500000000     0.377200000000     0.508200000000     0          
Zr401    Zr     0.994100000000     0.492560000000     0.396820000000     0          
O402     O      0.910400000000     0.486510000000     0.356320000000     0          
O403     O      0.845400000000     0.486220000000     0.429900000000     0          
C404     C      0.860000000000     0.486500000000     0.378300000000     0          
C405     C      0.812300000000     0.485500000000     0.336900000000     0          
C406     C      0.822100000000     0.484500000000     0.282900000000     0          
H407     H      0.859800000000     0.483200000000     0.270100000000     0          
C408     C      0.776900000000     0.485300000000     0.241500000000     0          
C409     C      0.717100000000     0.486900000000     0.310200000000     0          
C410     C      0.760000000000     0.488100000000     0.350500000000     0          
H411     H      0.679700000000     0.487300000000     0.323900000000     0          
H412     H      0.750200000000     0.490900000000     0.389000000000     0          
O413     O      0.989000000000     0.409100000000     0.357200000000     0          
O414     O      0.994600000000     0.346100000000     0.428900000000     0          
O415     O      0.941500000000     0.435100000000     0.448590000000     0          
C416     C      0.989100000000     0.314800000000     0.335500000000     0          
C417     C      0.983800000000     0.324200000000     0.281000000000     0          
H418     H      0.980200000000     0.361300000000     0.266900000000     0          
C419     C      0.983400000000     0.276400000000     0.243200000000     0          
C420     C      0.991800000000     0.361500000000     0.377200000000     0          
Zr421    Zr     0.505900000000     0.492560000000     0.103180000000     0          
O422     O      0.589600000000     0.486510000000     0.143680000000     0          
O423     O      0.654600000000     0.486220000000     0.070100000000     0          
C424     C      0.640000000000     0.486500000000     0.121700000000     0          
C425     C      0.687700000000     0.485500000000     0.163100000000     0          
C426     C      0.677900000000     0.484500000000     0.217100000000     0          
H427     H      0.640200000000     0.483200000000     0.229900000000     0          
C428     C      0.723100000000     0.485300000000     0.258500000000     0          
O429     O      0.511000000000     0.409100000000     0.142800000000     0          
O430     O      0.505400000000     0.346100000000     0.071100000000     0          
O431     O      0.558500000000     0.435100000000     0.051410000000     0          
C432     C      0.510900000000     0.314800000000     0.164500000000     0          
C433     C      0.516200000000     0.324200000000     0.219000000000     0          
H434     H      0.519800000000     0.361300000000     0.233100000000     0          
C435     C      0.516600000000     0.276400000000     0.256800000000     0          
C436     C      0.512000000000     0.217100000000     0.188900000000     0          
H437     H      0.509300000000     0.179900000000     0.175000000000     0          
C438     C      0.510700000000     0.261500000000     0.149200000000     0          
H439     H      0.509800000000     0.252700000000     0.110400000000     0          
C440     C      0.508200000000     0.361500000000     0.122800000000     0          
Zr441    Zr     0.994100000000     0.007440000000     0.103180000000     0          
O442     O      0.910400000000     0.013490000000     0.143680000000     0          
O443     O      0.845400000000     0.013780000000     0.070100000000     0          
C444     C      0.860000000000     0.013500000000     0.121700000000     0          
C445     C      0.812300000000     0.014500000000     0.163100000000     0          
C446     C      0.822100000000     0.015500000000     0.217100000000     0          
H447     H      0.859800000000     0.016800000000     0.229900000000     0          
C448     C      0.776900000000     0.014700000000     0.258500000000     0          
O449     O      0.989000000000     0.090900000000     0.142800000000     0          
O450     O      0.994600000000     0.153900000000     0.071100000000     0          
O451     O      0.941500000000     0.064900000000     0.051410000000     0          
C452     C      0.989100000000     0.185200000000     0.164500000000     0          
C453     C      0.983800000000     0.175800000000     0.219000000000     0          
H454     H      0.980200000000     0.138700000000     0.233100000000     0          
C455     C      0.983400000000     0.223600000000     0.256800000000     0          
C456     C      0.988000000000     0.282900000000     0.188900000000     0          
H457     H      0.990700000000     0.320100000000     0.175000000000     0          
C458     C      0.989300000000     0.238500000000     0.149200000000     0          
H459     H      0.990200000000     0.247300000000     0.110400000000     0          
C460     C      0.991800000000     0.138500000000     0.122800000000     0          
Zr461    Zr     0.505900000000     0.007440000000     0.396820000000     0          
O462     O      0.589600000000     0.013490000000     0.356320000000     0          
O463     O      0.654600000000     0.013780000000     0.429900000000     0          
C464     C      0.640000000000     0.013500000000     0.378300000000     0          
C465     C      0.687700000000     0.014500000000     0.336900000000     0          
C466     C      0.677900000000     0.015500000000     0.282900000000     0          
H467     H      0.640200000000     0.016800000000     0.270100000000     0          
C468     C      0.723100000000     0.014700000000     0.241500000000     0          
C469     C      0.782900000000     0.013100000000     0.310200000000     0          
C470     C      0.740000000000     0.011900000000     0.350500000000     0          
H471     H      0.820300000000     0.012700000000     0.323900000000     0          
H472     H      0.749800000000     0.009100000000     0.389000000000     0          
O473     O      0.511000000000     0.090900000000     0.357200000000     0          
O474     O      0.505400000000     0.153900000000     0.428900000000     0          
O475     O      0.558500000000     0.064900000000     0.448590000000     0          
C476     C      0.510900000000     0.185200000000     0.335500000000     0          
C477     C      0.516200000000     0.175800000000     0.281000000000     0          
H478     H      0.519800000000     0.138700000000     0.266900000000     0          
C479     C      0.516600000000     0.223600000000     0.243200000000     0          
C480     C      0.508200000000     0.138500000000     0.377200000000     0          
O481     O      0.559000000000     0.941000000000     0.559000000000     0          
O482     O      0.941000000000     0.559000000000     0.559000000000     0          
O483     O      0.941000000000     0.941000000000     0.941000000000     0          
O484     O      0.559000000000     0.559000000000     0.941000000000     0          
O485     O      0.441000000000     0.059000000000     0.441000000000     0          
O486     O      0.059000000000     0.441000000000     0.441000000000     0          
O487     O      0.059000000000     0.059000000000     0.059000000000     0          
O488     O      0.441000000000     0.441000000000     0.059000000000     0          
H489     H      0.716670000000     0.695940000000     0.483040000000     0          
H490     H      0.770000000000     0.648140000000     0.491750000000     0          
H491     H      0.770000000000     0.851860000000     0.008250000000     0          
H492     H      0.716670000000     0.804060000000     0.016960000000     0          
H493     H      0.194870000000     0.787230000000     0.485920000000     0          
H494     H      0.147520000000     0.732860000000     0.485610000000     0          
H495     H      0.352480000000     0.732860000000     0.014390000000     0          
H496     H      0.305130000000     0.787230000000     0.014080000000     0          
H497     H      0.694870000000     0.287230000000     0.514080000000     0          
H498     H      0.647520000000     0.232860000000     0.514390000000     0          
H499     H      0.805130000000     0.287230000000     0.985920000000     0          
H500     H      0.852480000000     0.232860000000     0.985610000000     0          
H501     H      0.230000000000     0.148140000000     0.991750000000     0          
H502     H      0.283330000000     0.195940000000     0.983040000000     0          
H503     H      0.230000000000     0.351860000000     0.508250000000     0          
H504     H      0.283330000000     0.304060000000     0.516960000000     0          
H505     H      0.483040000000     0.783330000000     0.804060000000     0          
H506     H      0.491750000000     0.730000000000     0.851860000000     0          
H507     H      0.016960000000     0.716670000000     0.804060000000     0          
H508     H      0.008250000000     0.770000000000     0.851860000000     0          
H509     H      0.514390000000     0.647520000000     0.232860000000     0          
H510     H      0.514080000000     0.694870000000     0.287230000000     0          
H511     H      0.985610000000     0.852480000000     0.232860000000     0          
H512     H      0.985920000000     0.805130000000     0.287230000000     0          
H513     H      0.014390000000     0.147520000000     0.767140000000     0          
H514     H      0.014080000000     0.194870000000     0.712770000000     0          
H515     H      0.485610000000     0.352480000000     0.767140000000     0          
H516     H      0.485920000000     0.305130000000     0.712770000000     0          
H517     H      0.516960000000     0.283330000000     0.304060000000     0          
H518     H      0.508250000000     0.230000000000     0.351860000000     0          
H519     H      0.991750000000     0.270000000000     0.351860000000     0          
H520     H      0.983040000000     0.216670000000     0.304060000000     0          
H521     H      0.648140000000     0.008250000000     0.730000000000     0          
H522     H      0.695940000000     0.016960000000     0.783330000000     0          
H523     H      0.695940000000     0.483040000000     0.716670000000     0          
H524     H      0.648140000000     0.491750000000     0.770000000000     0          
H525     H      0.767140000000     0.014390000000     0.147520000000     0          
H526     H      0.712770000000     0.014080000000     0.194870000000     0          
H527     H      0.787230000000     0.485920000000     0.194870000000     0          
H528     H      0.732860000000     0.485610000000     0.147520000000     0          
H529     H      0.304060000000     0.516960000000     0.283330000000     0          
H530     H      0.351860000000     0.508250000000     0.230000000000     0          
H531     H      0.351860000000     0.991750000000     0.270000000000     0          
H532     H      0.304060000000     0.983040000000     0.216670000000     0          
H533     H      0.232860000000     0.514390000000     0.647520000000     0          
H534     H      0.287230000000     0.514080000000     0.694870000000     0          
H535     H      0.232860000000     0.985610000000     0.852480000000     0          
H536     H      0.287230000000     0.985920000000     0.805130000000     0          


