data_XEZDIS

_audit_creation_method RASPA-1.0
_audit_creation_date 2020-11-2
_audit_author_name 'Rocio Bueno-Perez'

_cell_length_a    39.1912
_cell_length_b    39.1912
_cell_length_c    39.1912
_cell_angle_alpha 90
_cell_angle_beta  90
_cell_angle_gamma 90
_cell_volume      60195.7

_symmetry_cell_setting          triclinic
_symmetry_space_group_name_Hall 'P 1'
_symmetry_space_group_name_H-M  'P 1'
_symmetry_Int_Tables_number     1

_symmetry_equiv_pos_as_xyz 'x,y,z'

loop_
_atom_site_label
_atom_site_type_symbol
_atom_site_fract_x
_atom_site_fract_y
_atom_site_fract_z
_atom_site_charge
O1       O      0.123990000000     0.075350000000     0.215620000000     0          
C2       C      0.120130000000     0.026800000000     0.266070000000     0          
H3       H      0.121130000000     0.049690000000     0.272320000000     0          
C4       C      0.118000000000     0.001500000000     0.291500000000     0          
H5       H      0.116700000000     0.007760000000     0.314370000000     0          
C6       C      0.110300000000     0.906300000000     0.301600000000     0          
C7       C      0.110000000000     0.880200000000     0.328000000000     0          
C8       C      0.140600000000     0.874300000000     0.348000000000     0          
C9       C      0.171300000000     0.892000000000     0.341300000000     0          
C10      C      0.081500000000     0.858700000000     0.334700000000     0          
C11      C      0.048900000000     0.865500000000     0.315800000000     0          
H12      H      0.047940000000     0.883020000000     0.299780000000     0          
C13      C      0.021100000000     0.846600000000     0.321800000000     0          
H14      H      0.001470000000     0.850240000000     0.308960000000     0          
O15      O      0.123990000000     0.575350000000     0.715620000000     0          
C16      C      0.120130000000     0.526800000000     0.766070000000     0          
H17      H      0.121130000000     0.549690000000     0.772320000000     0          
C18      C      0.118000000000     0.501500000000     0.791500000000     0          
H19      H      0.116700000000     0.507760000000     0.814370000000     0          
C20      C      0.110300000000     0.406300000000     0.801600000000     0          
C21      C      0.110000000000     0.380200000000     0.828000000000     0          
C22      C      0.140600000000     0.374300000000     0.848000000000     0          
C23      C      0.171300000000     0.392000000000     0.841300000000     0          
C24      C      0.081500000000     0.358700000000     0.834700000000     0          
C25      C      0.048900000000     0.365500000000     0.815800000000     0          
H26      H      0.047940000000     0.383020000000     0.799780000000     0          
C27      C      0.021100000000     0.346600000000     0.821800000000     0          
H28      H      0.001470000000     0.350240000000     0.808960000000     0          
O29      O      0.623990000000     0.075350000000     0.715620000000     0          
C30      C      0.620130000000     0.026800000000     0.766070000000     0          
H31      H      0.621130000000     0.049690000000     0.772320000000     0          
C32      C      0.618000000000     0.001500000000     0.791500000000     0          
H33      H      0.616700000000     0.007760000000     0.814370000000     0          
O34      O      0.623990000000     0.575350000000     0.215620000000     0          
C35      C      0.620130000000     0.526800000000     0.266070000000     0          
H36      H      0.621130000000     0.549690000000     0.272320000000     0          
C37      C      0.618000000000     0.501500000000     0.291500000000     0          
H38      H      0.616700000000     0.507760000000     0.314370000000     0          
O39      O      0.626010000000     0.174650000000     0.715620000000     0          
C40      C      0.629870000000     0.223200000000     0.766070000000     0          
H41      H      0.628870000000     0.200310000000     0.772320000000     0          
C42      C      0.632000000000     0.248500000000     0.791500000000     0          
H43      H      0.633300000000     0.242240000000     0.814370000000     0          
C44      C      0.639700000000     0.343700000000     0.801600000000     0          
C45      C      0.640000000000     0.369800000000     0.828000000000     0          
C46      C      0.609400000000     0.375700000000     0.848000000000     0          
C47      C      0.578700000000     0.358000000000     0.841300000000     0          
C48      C      0.668500000000     0.391300000000     0.834700000000     0          
C49      C      0.701100000000     0.384500000000     0.815800000000     0          
H50      H      0.702060000000     0.366980000000     0.799780000000     0          
C51      C      0.728900000000     0.403400000000     0.821800000000     0          
H52      H      0.748530000000     0.399760000000     0.808960000000     0          
O53      O      0.626010000000     0.674650000000     0.215620000000     0          
C54      C      0.629870000000     0.723200000000     0.266070000000     0          
H55      H      0.628870000000     0.700310000000     0.272320000000     0          
C56      C      0.632000000000     0.748500000000     0.291500000000     0          
H57      H      0.633300000000     0.742240000000     0.314370000000     0          
C58      C      0.639700000000     0.843700000000     0.301600000000     0          
C59      C      0.640000000000     0.869800000000     0.328000000000     0          
C60      C      0.609400000000     0.875700000000     0.348000000000     0          
C61      C      0.578700000000     0.858000000000     0.341300000000     0          
C62      C      0.668500000000     0.891300000000     0.334700000000     0          
C63      C      0.701100000000     0.884500000000     0.315800000000     0          
H64      H      0.702060000000     0.866980000000     0.299780000000     0          
C65      C      0.728900000000     0.903400000000     0.321800000000     0          
H66      H      0.748530000000     0.899760000000     0.308960000000     0          
O67      O      0.126010000000     0.174650000000     0.215620000000     0          
C68      C      0.129870000000     0.223200000000     0.266070000000     0          
H69      H      0.128870000000     0.200310000000     0.272320000000     0          
C70      C      0.132000000000     0.248500000000     0.291500000000     0          
H71      H      0.133300000000     0.242240000000     0.314370000000     0          
C72      C      0.139700000000     0.343700000000     0.301600000000     0          
C73      C      0.140000000000     0.369800000000     0.328000000000     0          
C74      C      0.109400000000     0.375700000000     0.348000000000     0          
C75      C      0.078700000000     0.358000000000     0.341300000000     0          
C76      C      0.168500000000     0.391300000000     0.334700000000     0          
C77      C      0.201100000000     0.384500000000     0.315800000000     0          
H78      H      0.202060000000     0.366980000000     0.299780000000     0          
C79      C      0.228900000000     0.403400000000     0.321800000000     0          
H80      H      0.248530000000     0.399760000000     0.308960000000     0          
O81      O      0.126010000000     0.674650000000     0.715620000000     0          
C82      C      0.129870000000     0.723200000000     0.766070000000     0          
H83      H      0.128870000000     0.700310000000     0.772320000000     0          
C84      C      0.132000000000     0.748500000000     0.791500000000     0          
H85      H      0.133300000000     0.742240000000     0.814370000000     0          
C86      C      0.139700000000     0.843700000000     0.801600000000     0          
C87      C      0.140000000000     0.869800000000     0.828000000000     0          
C88      C      0.109400000000     0.875700000000     0.848000000000     0          
C89      C      0.078700000000     0.858000000000     0.841300000000     0          
C90      C      0.168500000000     0.891300000000     0.834700000000     0          
C91      C      0.201100000000     0.884500000000     0.815800000000     0          
H92      H      0.202060000000     0.866980000000     0.799780000000     0          
C93      C      0.228900000000     0.903400000000     0.821800000000     0          
H94      H      0.248530000000     0.899760000000     0.808960000000     0          
O95      O      0.126010000000     0.575350000000     0.534380000000     0          
C96      C      0.129870000000     0.526800000000     0.483930000000     0          
H97      H      0.128870000000     0.549690000000     0.477680000000     0          
C98      C      0.132000000000     0.501500000000     0.458500000000     0          
H99      H      0.133300000000     0.507760000000     0.435630000000     0          
O100     O      0.126010000000     0.075350000000     0.034380000000     0          
C101     C      0.129870000000     0.026800000000     0.983930000000     0          
H102     H      0.128870000000     0.049690000000     0.977680000000     0          
C103     C      0.132000000000     0.001500000000     0.958500000000     0          
H104     H      0.133300000000     0.007760000000     0.935630000000     0          
O105     O      0.626010000000     0.575350000000     0.034380000000     0          
C106     C      0.629870000000     0.526800000000     0.983930000000     0          
H107     H      0.628870000000     0.549690000000     0.977680000000     0          
C108     C      0.632000000000     0.501500000000     0.958500000000     0          
H109     H      0.633300000000     0.507760000000     0.935630000000     0          
O110     O      0.626010000000     0.075350000000     0.534380000000     0          
C111     C      0.629870000000     0.026800000000     0.483930000000     0          
H112     H      0.628870000000     0.049690000000     0.477680000000     0          
C113     C      0.632000000000     0.001500000000     0.458500000000     0          
H114     H      0.633300000000     0.007760000000     0.435630000000     0          
O115     O      0.623990000000     0.674650000000     0.034380000000     0          
C116     C      0.620130000000     0.723200000000     0.983930000000     0          
H117     H      0.621130000000     0.700310000000     0.977680000000     0          
C118     C      0.618000000000     0.748500000000     0.958500000000     0          
H119     H      0.616700000000     0.742240000000     0.935630000000     0          
C120     C      0.610300000000     0.843700000000     0.948400000000     0          
C121     C      0.610000000000     0.869800000000     0.922000000000     0          
C122     C      0.640600000000     0.875700000000     0.902000000000     0          
C123     C      0.671300000000     0.858000000000     0.908700000000     0          
C124     C      0.581500000000     0.891300000000     0.915300000000     0          
C125     C      0.548900000000     0.884500000000     0.934200000000     0          
H126     H      0.547940000000     0.866980000000     0.950220000000     0          
C127     C      0.521100000000     0.903400000000     0.928200000000     0          
H128     H      0.501470000000     0.899760000000     0.941040000000     0          
O129     O      0.623990000000     0.174650000000     0.534380000000     0          
C130     C      0.620130000000     0.223200000000     0.483930000000     0          
H131     H      0.621130000000     0.200310000000     0.477680000000     0          
C132     C      0.618000000000     0.248500000000     0.458500000000     0          
H133     H      0.616700000000     0.242240000000     0.435630000000     0          
C134     C      0.610300000000     0.343700000000     0.448400000000     0          
C135     C      0.610000000000     0.369800000000     0.422000000000     0          
C136     C      0.640600000000     0.375700000000     0.402000000000     0          
C137     C      0.671300000000     0.358000000000     0.408700000000     0          
C138     C      0.581500000000     0.391300000000     0.415300000000     0          
C139     C      0.548900000000     0.384500000000     0.434200000000     0          
H140     H      0.547940000000     0.366980000000     0.450220000000     0          
C141     C      0.521100000000     0.403400000000     0.428200000000     0          
H142     H      0.501470000000     0.399760000000     0.441040000000     0          
O143     O      0.123990000000     0.674650000000     0.534380000000     0          
C144     C      0.120130000000     0.723200000000     0.483930000000     0          
H145     H      0.121130000000     0.700310000000     0.477680000000     0          
C146     C      0.118000000000     0.748500000000     0.458500000000     0          
H147     H      0.116700000000     0.742240000000     0.435630000000     0          
O148     O      0.123990000000     0.174650000000     0.034380000000     0          
C149     C      0.120130000000     0.223200000000     0.983930000000     0          
H150     H      0.121130000000     0.200310000000     0.977680000000     0          
C151     C      0.118000000000     0.248500000000     0.958500000000     0          
H152     H      0.116700000000     0.242240000000     0.935630000000     0          
O153     O      0.215620000000     0.123990000000     0.075350000000     0          
C154     C      0.266070000000     0.120130000000     0.026800000000     0          
H155     H      0.272320000000     0.121130000000     0.049690000000     0          
C156     C      0.291500000000     0.118000000000     0.001500000000     0          
H157     H      0.314370000000     0.116700000000     0.007760000000     0          
C158     C      0.301600000000     0.110300000000     0.906300000000     0          
C159     C      0.328000000000     0.110000000000     0.880200000000     0          
C160     C      0.348000000000     0.140600000000     0.874300000000     0          
C161     C      0.341300000000     0.171300000000     0.892000000000     0          
C162     C      0.334700000000     0.081500000000     0.858700000000     0          
C163     C      0.315800000000     0.048900000000     0.865500000000     0          
H164     H      0.299780000000     0.047940000000     0.883020000000     0          
C165     C      0.321800000000     0.021100000000     0.846600000000     0          
H166     H      0.308960000000     0.001470000000     0.850240000000     0          
O167     O      0.215620000000     0.623990000000     0.575350000000     0          
C168     C      0.266070000000     0.620130000000     0.526800000000     0          
H169     H      0.272320000000     0.621130000000     0.549690000000     0          
C170     C      0.291500000000     0.618000000000     0.501500000000     0          
H171     H      0.314370000000     0.616700000000     0.507760000000     0          
O172     O      0.715620000000     0.123990000000     0.575350000000     0          
C173     C      0.766070000000     0.120130000000     0.526800000000     0          
H174     H      0.772320000000     0.121130000000     0.549690000000     0          
C175     C      0.791500000000     0.118000000000     0.501500000000     0          
H176     H      0.814370000000     0.116700000000     0.507760000000     0          
C177     C      0.801600000000     0.110300000000     0.406300000000     0          
C178     C      0.828000000000     0.110000000000     0.380200000000     0          
C179     C      0.848000000000     0.140600000000     0.374300000000     0          
C180     C      0.841300000000     0.171300000000     0.392000000000     0          
C181     C      0.834700000000     0.081500000000     0.358700000000     0          
C182     C      0.815800000000     0.048900000000     0.365500000000     0          
H183     H      0.799780000000     0.047940000000     0.383020000000     0          
C184     C      0.821800000000     0.021100000000     0.346600000000     0          
H185     H      0.808960000000     0.001470000000     0.350240000000     0          
O186     O      0.715620000000     0.623990000000     0.075350000000     0          
C187     C      0.766070000000     0.620130000000     0.026800000000     0          
H188     H      0.772320000000     0.621130000000     0.049690000000     0          
C189     C      0.791500000000     0.618000000000     0.001500000000     0          
H190     H      0.814370000000     0.616700000000     0.007760000000     0          
C191     C      0.801600000000     0.610300000000     0.906300000000     0          
C192     C      0.828000000000     0.610000000000     0.880200000000     0          
C193     C      0.848000000000     0.640600000000     0.874300000000     0          
C194     C      0.841300000000     0.671300000000     0.892000000000     0          
C195     C      0.834700000000     0.581500000000     0.858700000000     0          
C196     C      0.815800000000     0.548900000000     0.865500000000     0          
H197     H      0.799780000000     0.547940000000     0.883020000000     0          
C198     C      0.821800000000     0.521100000000     0.846600000000     0          
H199     H      0.808960000000     0.501470000000     0.850240000000     0          
O200     O      0.715620000000     0.626010000000     0.174650000000     0          
C201     C      0.766070000000     0.629870000000     0.223200000000     0          
H202     H      0.772320000000     0.628870000000     0.200310000000     0          
C203     C      0.791500000000     0.632000000000     0.248500000000     0          
H204     H      0.814370000000     0.633300000000     0.242240000000     0          
O205     O      0.715620000000     0.126010000000     0.674650000000     0          
C206     C      0.766070000000     0.129870000000     0.723200000000     0          
H207     H      0.772320000000     0.128870000000     0.700310000000     0          
C208     C      0.791500000000     0.132000000000     0.748500000000     0          
H209     H      0.814370000000     0.133300000000     0.742240000000     0          
O210     O      0.215620000000     0.626010000000     0.674650000000     0          
C211     C      0.266070000000     0.629870000000     0.723200000000     0          
H212     H      0.272320000000     0.628870000000     0.700310000000     0          
C213     C      0.291500000000     0.632000000000     0.748500000000     0          
H214     H      0.314370000000     0.633300000000     0.742240000000     0          
C215     C      0.301600000000     0.639700000000     0.843700000000     0          
C216     C      0.328000000000     0.640000000000     0.869800000000     0          
C217     C      0.348000000000     0.609400000000     0.875700000000     0          
C218     C      0.341300000000     0.578700000000     0.858000000000     0          
C219     C      0.334700000000     0.668500000000     0.891300000000     0          
C220     C      0.315800000000     0.701100000000     0.884500000000     0          
H221     H      0.299780000000     0.702060000000     0.866980000000     0          
C222     C      0.321800000000     0.728900000000     0.903400000000     0          
H223     H      0.308960000000     0.748530000000     0.899760000000     0          
O224     O      0.215620000000     0.126010000000     0.174650000000     0          
C225     C      0.266070000000     0.129870000000     0.223200000000     0          
H226     H      0.272320000000     0.128870000000     0.200310000000     0          
C227     C      0.291500000000     0.132000000000     0.248500000000     0          
H228     H      0.314370000000     0.133300000000     0.242240000000     0          
O229     O      0.534380000000     0.126010000000     0.575350000000     0          
C230     C      0.483930000000     0.129870000000     0.526800000000     0          
H231     H      0.477680000000     0.128870000000     0.549690000000     0          
C232     C      0.458500000000     0.132000000000     0.501500000000     0          
H233     H      0.435630000000     0.133300000000     0.507760000000     0          
C234     C      0.448400000000     0.139700000000     0.406300000000     0          
C235     C      0.422000000000     0.140000000000     0.380200000000     0          
C236     C      0.402000000000     0.109400000000     0.374300000000     0          
C237     C      0.408700000000     0.078700000000     0.392000000000     0          
C238     C      0.415300000000     0.168500000000     0.358700000000     0          
C239     C      0.434200000000     0.201100000000     0.365500000000     0          
H240     H      0.450220000000     0.202060000000     0.383020000000     0          
C241     C      0.428200000000     0.228900000000     0.346600000000     0          
H242     H      0.441040000000     0.248530000000     0.350240000000     0          
O243     O      0.534380000000     0.626010000000     0.075350000000     0          
C244     C      0.483930000000     0.629870000000     0.026800000000     0          
H245     H      0.477680000000     0.628870000000     0.049690000000     0          
C246     C      0.458500000000     0.632000000000     0.001500000000     0          
H247     H      0.435630000000     0.633300000000     0.007760000000     0          
O248     O      0.034380000000     0.126010000000     0.075350000000     0          
C249     C      0.983930000000     0.129870000000     0.026800000000     0          
H250     H      0.977680000000     0.128870000000     0.049690000000     0          
C251     C      0.958500000000     0.132000000000     0.001500000000     0          
H252     H      0.935630000000     0.133300000000     0.007760000000     0          
C253     C      0.948400000000     0.139700000000     0.906300000000     0          
C254     C      0.922000000000     0.140000000000     0.880200000000     0          
C255     C      0.902000000000     0.109400000000     0.874300000000     0          
C256     C      0.908700000000     0.078700000000     0.892000000000     0          
C257     C      0.915300000000     0.168500000000     0.858700000000     0          
C258     C      0.934200000000     0.201100000000     0.865500000000     0          
H259     H      0.950220000000     0.202060000000     0.883020000000     0          
C260     C      0.928200000000     0.228900000000     0.846600000000     0          
H261     H      0.941040000000     0.248530000000     0.850240000000     0          
O262     O      0.034380000000     0.626010000000     0.575350000000     0          
C263     C      0.983930000000     0.629870000000     0.526800000000     0          
H264     H      0.977680000000     0.628870000000     0.549690000000     0          
C265     C      0.958500000000     0.632000000000     0.501500000000     0          
H266     H      0.935630000000     0.633300000000     0.507760000000     0          
C267     C      0.948400000000     0.639700000000     0.406300000000     0          
C268     C      0.922000000000     0.640000000000     0.380200000000     0          
C269     C      0.902000000000     0.609400000000     0.374300000000     0          
C270     C      0.908700000000     0.578700000000     0.392000000000     0          
C271     C      0.915300000000     0.668500000000     0.358700000000     0          
C272     C      0.934200000000     0.701100000000     0.365500000000     0          
H273     H      0.950220000000     0.702060000000     0.383020000000     0          
C274     C      0.928200000000     0.728900000000     0.346600000000     0          
H275     H      0.941040000000     0.748530000000     0.350240000000     0          
O276     O      0.034380000000     0.623990000000     0.674650000000     0          
C277     C      0.983930000000     0.620130000000     0.723200000000     0          
H278     H      0.977680000000     0.621130000000     0.700310000000     0          
C279     C      0.958500000000     0.618000000000     0.748500000000     0          
H280     H      0.935630000000     0.616700000000     0.742240000000     0          
O281     O      0.034380000000     0.123990000000     0.174650000000     0          
C282     C      0.983930000000     0.120130000000     0.223200000000     0          
H283     H      0.977680000000     0.121130000000     0.200310000000     0          
C284     C      0.958500000000     0.118000000000     0.248500000000     0          
H285     H      0.935630000000     0.116700000000     0.242240000000     0          
O286     O      0.534380000000     0.623990000000     0.174650000000     0          
C287     C      0.483930000000     0.620130000000     0.223200000000     0          
H288     H      0.477680000000     0.621130000000     0.200310000000     0          
C289     C      0.458500000000     0.618000000000     0.248500000000     0          
H290     H      0.435630000000     0.616700000000     0.242240000000     0          
C291     C      0.448400000000     0.610300000000     0.343700000000     0          
C292     C      0.422000000000     0.610000000000     0.369800000000     0          
C293     C      0.402000000000     0.640600000000     0.375700000000     0          
C294     C      0.408700000000     0.671300000000     0.358000000000     0          
C295     C      0.415300000000     0.581500000000     0.391300000000     0          
C296     C      0.434200000000     0.548900000000     0.384500000000     0          
H297     H      0.450220000000     0.547940000000     0.366980000000     0          
C298     C      0.428200000000     0.521100000000     0.403400000000     0          
H299     H      0.441040000000     0.501470000000     0.399760000000     0          
O300     O      0.534380000000     0.123990000000     0.674650000000     0          
C301     C      0.483930000000     0.120130000000     0.723200000000     0          
H302     H      0.477680000000     0.121130000000     0.700310000000     0          
C303     C      0.458500000000     0.118000000000     0.748500000000     0          
H304     H      0.435630000000     0.116700000000     0.742240000000     0          
O305     O      0.075350000000     0.215620000000     0.123990000000     0          
C306     C      0.026800000000     0.266070000000     0.120130000000     0          
H307     H      0.049690000000     0.272320000000     0.121130000000     0          
C308     C      0.001500000000     0.291500000000     0.118000000000     0          
H309     H      0.007760000000     0.314370000000     0.116700000000     0          
C310     C      0.906300000000     0.301600000000     0.110300000000     0          
C311     C      0.880200000000     0.328000000000     0.110000000000     0          
C312     C      0.874300000000     0.348000000000     0.140600000000     0          
C313     C      0.892000000000     0.341300000000     0.171300000000     0          
C314     C      0.858700000000     0.334700000000     0.081500000000     0          
C315     C      0.865500000000     0.315800000000     0.048900000000     0          
H316     H      0.883020000000     0.299780000000     0.047940000000     0          
C317     C      0.846600000000     0.321800000000     0.021100000000     0          
H318     H      0.850240000000     0.308960000000     0.001470000000     0          
O319     O      0.075350000000     0.715620000000     0.623990000000     0          
C320     C      0.026800000000     0.766070000000     0.620130000000     0          
H321     H      0.049690000000     0.772320000000     0.621130000000     0          
C322     C      0.001500000000     0.791500000000     0.618000000000     0          
H323     H      0.007760000000     0.814370000000     0.616700000000     0          
O324     O      0.575350000000     0.215620000000     0.623990000000     0          
C325     C      0.526800000000     0.266070000000     0.620130000000     0          
H326     H      0.549690000000     0.272320000000     0.621130000000     0          
C327     C      0.501500000000     0.291500000000     0.618000000000     0          
H328     H      0.507760000000     0.314370000000     0.616700000000     0          
O329     O      0.575350000000     0.715620000000     0.123990000000     0          
C330     C      0.526800000000     0.766070000000     0.120130000000     0          
H331     H      0.549690000000     0.772320000000     0.121130000000     0          
C332     C      0.501500000000     0.791500000000     0.118000000000     0          
H333     H      0.507760000000     0.814370000000     0.116700000000     0          
O334     O      0.174650000000     0.715620000000     0.626010000000     0          
C335     C      0.223200000000     0.766070000000     0.629870000000     0          
H336     H      0.200310000000     0.772320000000     0.628870000000     0          
C337     C      0.248500000000     0.791500000000     0.632000000000     0          
H338     H      0.242240000000     0.814370000000     0.633300000000     0          
O339     O      0.174650000000     0.215620000000     0.126010000000     0          
C340     C      0.223200000000     0.266070000000     0.129870000000     0          
H341     H      0.200310000000     0.272320000000     0.128870000000     0          
C342     C      0.248500000000     0.291500000000     0.132000000000     0          
H343     H      0.242240000000     0.314370000000     0.133300000000     0          
C344     C      0.343700000000     0.301600000000     0.139700000000     0          
C345     C      0.369800000000     0.328000000000     0.140000000000     0          
C346     C      0.375700000000     0.348000000000     0.109400000000     0          
C347     C      0.358000000000     0.341300000000     0.078700000000     0          
C348     C      0.391300000000     0.334700000000     0.168500000000     0          
C349     C      0.384500000000     0.315800000000     0.201100000000     0          
H350     H      0.366980000000     0.299780000000     0.202060000000     0          
C351     C      0.403400000000     0.321800000000     0.228900000000     0          
H352     H      0.399760000000     0.308960000000     0.248530000000     0          
O353     O      0.674650000000     0.715620000000     0.126010000000     0          
C354     C      0.723200000000     0.766070000000     0.129870000000     0          
H355     H      0.700310000000     0.772320000000     0.128870000000     0          
C356     C      0.748500000000     0.791500000000     0.132000000000     0          
H357     H      0.742240000000     0.814370000000     0.133300000000     0          
C358     C      0.843700000000     0.801600000000     0.139700000000     0          
C359     C      0.869800000000     0.828000000000     0.140000000000     0          
C360     C      0.875700000000     0.848000000000     0.109400000000     0          
C361     C      0.858000000000     0.841300000000     0.078700000000     0          
C362     C      0.891300000000     0.834700000000     0.168500000000     0          
C363     C      0.884500000000     0.815800000000     0.201100000000     0          
H364     H      0.866980000000     0.799780000000     0.202060000000     0          
C365     C      0.903400000000     0.821800000000     0.228900000000     0          
H366     H      0.899760000000     0.808960000000     0.248530000000     0          
H367     H      0.850880000000     0.773990000000     0.145370000000     0          
O368     O      0.674650000000     0.215620000000     0.626010000000     0          
C369     C      0.723200000000     0.266070000000     0.629870000000     0          
H370     H      0.700310000000     0.272320000000     0.628870000000     0          
C371     C      0.748500000000     0.291500000000     0.632000000000     0          
H372     H      0.742240000000     0.314370000000     0.633300000000     0          
C373     C      0.843700000000     0.301600000000     0.639700000000     0          
C374     C      0.869800000000     0.328000000000     0.640000000000     0          
C375     C      0.875700000000     0.348000000000     0.609400000000     0          
C376     C      0.858000000000     0.341300000000     0.578700000000     0          
C377     C      0.891300000000     0.334700000000     0.668500000000     0          
C378     C      0.884500000000     0.315800000000     0.701100000000     0          
H379     H      0.866980000000     0.299780000000     0.702060000000     0          
C380     C      0.903400000000     0.321800000000     0.728900000000     0          
H381     H      0.899760000000     0.308960000000     0.748530000000     0          
O382     O      0.575350000000     0.534380000000     0.126010000000     0          
C383     C      0.526800000000     0.483930000000     0.129870000000     0          
H384     H      0.549690000000     0.477680000000     0.128870000000     0          
C385     C      0.501500000000     0.458500000000     0.132000000000     0          
H386     H      0.507760000000     0.435630000000     0.133300000000     0          
O387     O      0.575350000000     0.034380000000     0.626010000000     0          
C388     C      0.526800000000     0.983930000000     0.629870000000     0          
H389     H      0.549690000000     0.977680000000     0.628870000000     0          
C390     C      0.501500000000     0.958500000000     0.632000000000     0          
H391     H      0.507760000000     0.935630000000     0.633300000000     0          
C392     C      0.406300000000     0.948400000000     0.639700000000     0          
C393     C      0.380200000000     0.922000000000     0.640000000000     0          
C394     C      0.374300000000     0.902000000000     0.609400000000     0          
C395     C      0.392000000000     0.908700000000     0.578700000000     0          
C396     C      0.358700000000     0.915300000000     0.668500000000     0          
C397     C      0.365500000000     0.934200000000     0.701100000000     0          
H398     H      0.383020000000     0.950220000000     0.702060000000     0          
C399     C      0.346600000000     0.928200000000     0.728900000000     0          
H400     H      0.350240000000     0.941040000000     0.748530000000     0          
O401     O      0.075350000000     0.534380000000     0.626010000000     0          
C402     C      0.026800000000     0.483930000000     0.629870000000     0          
H403     H      0.049690000000     0.477680000000     0.628870000000     0          
C404     C      0.001500000000     0.458500000000     0.632000000000     0          
H405     H      0.007760000000     0.435630000000     0.633300000000     0          
O406     O      0.075350000000     0.034380000000     0.126010000000     0          
C407     C      0.026800000000     0.983930000000     0.129870000000     0          
H408     H      0.049690000000     0.977680000000     0.128870000000     0          
C409     C      0.001500000000     0.958500000000     0.132000000000     0          
H410     H      0.007760000000     0.935630000000     0.133300000000     0          
O411     O      0.674650000000     0.034380000000     0.623990000000     0          
C412     C      0.723200000000     0.983930000000     0.620130000000     0          
H413     H      0.700310000000     0.977680000000     0.621130000000     0          
C414     C      0.748500000000     0.958500000000     0.618000000000     0          
H415     H      0.742240000000     0.935630000000     0.616700000000     0          
C416     C      0.843700000000     0.948400000000     0.610300000000     0          
C417     C      0.869800000000     0.922000000000     0.610000000000     0          
C418     C      0.875700000000     0.902000000000     0.640600000000     0          
C419     C      0.858000000000     0.908700000000     0.671300000000     0          
C420     C      0.891300000000     0.915300000000     0.581500000000     0          
C421     C      0.884500000000     0.934200000000     0.548900000000     0          
H422     H      0.866980000000     0.950220000000     0.547940000000     0          
C423     C      0.903400000000     0.928200000000     0.521100000000     0          
H424     H      0.899760000000     0.941040000000     0.501470000000     0          
O425     O      0.674650000000     0.534380000000     0.123990000000     0          
C426     C      0.723200000000     0.483930000000     0.120130000000     0          
H427     H      0.700310000000     0.477680000000     0.121130000000     0          
C428     C      0.748500000000     0.458500000000     0.118000000000     0          
H429     H      0.742240000000     0.435630000000     0.116700000000     0          
O430     O      0.174650000000     0.034380000000     0.123990000000     0          
C431     C      0.223200000000     0.983930000000     0.120130000000     0          
H432     H      0.200310000000     0.977680000000     0.121130000000     0          
C433     C      0.248500000000     0.958500000000     0.118000000000     0          
H434     H      0.242240000000     0.935630000000     0.116700000000     0          
C435     C      0.343700000000     0.948400000000     0.110300000000     0          
C436     C      0.369800000000     0.922000000000     0.110000000000     0          
C437     C      0.375700000000     0.902000000000     0.140600000000     0          
C438     C      0.358000000000     0.908700000000     0.171300000000     0          
C439     C      0.391300000000     0.915300000000     0.081500000000     0          
C440     C      0.384500000000     0.934200000000     0.048900000000     0          
H441     H      0.366980000000     0.950220000000     0.047940000000     0          
C442     C      0.403400000000     0.928200000000     0.021100000000     0          
H443     H      0.399760000000     0.941040000000     0.001470000000     0          
O444     O      0.174650000000     0.534380000000     0.623990000000     0          
C445     C      0.223200000000     0.483930000000     0.620130000000     0          
H446     H      0.200310000000     0.477680000000     0.621130000000     0          
C447     C      0.248500000000     0.458500000000     0.618000000000     0          
H448     H      0.242240000000     0.435630000000     0.616700000000     0          
C449     C      0.343700000000     0.448400000000     0.610300000000     0          
C450     C      0.369800000000     0.422000000000     0.610000000000     0          
C451     C      0.375700000000     0.402000000000     0.640600000000     0          
C452     C      0.358000000000     0.408700000000     0.671300000000     0          
C453     C      0.391300000000     0.415300000000     0.581500000000     0          
C454     C      0.384500000000     0.434200000000     0.548900000000     0          
H455     H      0.366980000000     0.450220000000     0.547940000000     0          
C456     C      0.403400000000     0.428200000000     0.521100000000     0          
H457     H      0.399760000000     0.441040000000     0.501470000000     0          
O458     O      0.825350000000     0.373990000000     0.284380000000     0          
C459     C      0.776800000000     0.370130000000     0.233930000000     0          
H460     H      0.799690000000     0.371130000000     0.227680000000     0          
C461     C      0.751500000000     0.368000000000     0.208500000000     0          
H462     H      0.757760000000     0.366700000000     0.185630000000     0          
O463     O      0.825350000000     0.873990000000     0.784380000000     0          
C464     C      0.776800000000     0.870130000000     0.733930000000     0          
H465     H      0.799690000000     0.871130000000     0.727680000000     0          
C466     C      0.751500000000     0.868000000000     0.708500000000     0          
H467     H      0.757760000000     0.866700000000     0.685630000000     0          
O468     O      0.325350000000     0.373990000000     0.784380000000     0          
C469     C      0.276800000000     0.370130000000     0.733930000000     0          
H470     H      0.299690000000     0.371130000000     0.727680000000     0          
C471     C      0.251500000000     0.368000000000     0.708500000000     0          
H472     H      0.257760000000     0.366700000000     0.685630000000     0          
C473     C      0.156300000000     0.360300000000     0.698400000000     0          
C474     C      0.130200000000     0.360000000000     0.672000000000     0          
C475     C      0.124300000000     0.390600000000     0.652000000000     0          
C476     C      0.142000000000     0.421300000000     0.658700000000     0          
C477     C      0.108700000000     0.331500000000     0.665300000000     0          
C478     C      0.115500000000     0.298900000000     0.684200000000     0          
H479     H      0.133020000000     0.297940000000     0.700220000000     0          
C480     C      0.096600000000     0.271100000000     0.678200000000     0          
H481     H      0.100240000000     0.251470000000     0.691040000000     0          
O482     O      0.325350000000     0.873990000000     0.284380000000     0          
C483     C      0.276800000000     0.870130000000     0.233930000000     0          
H484     H      0.299690000000     0.871130000000     0.227680000000     0          
C485     C      0.251500000000     0.868000000000     0.208500000000     0          
H486     H      0.257760000000     0.866700000000     0.185630000000     0          
C487     C      0.156300000000     0.860300000000     0.198400000000     0          
C488     C      0.130200000000     0.860000000000     0.172000000000     0          
C489     C      0.124300000000     0.890600000000     0.152000000000     0          
C490     C      0.142000000000     0.921300000000     0.158700000000     0          
C491     C      0.108700000000     0.831500000000     0.165300000000     0          
C492     C      0.115500000000     0.798900000000     0.184200000000     0          
H493     H      0.133020000000     0.797940000000     0.200220000000     0          
C494     C      0.096600000000     0.771100000000     0.178200000000     0          
H495     H      0.100240000000     0.751470000000     0.191040000000     0          
O496     O      0.924650000000     0.876010000000     0.784380000000     0          
C497     C      0.973200000000     0.879870000000     0.733930000000     0          
H498     H      0.950310000000     0.878870000000     0.727680000000     0          
C499     C      0.998500000000     0.882000000000     0.708500000000     0          
H500     H      0.992240000000     0.883300000000     0.685630000000     0          
C501     C      0.093700000000     0.889700000000     0.698400000000     0          
C502     C      0.119800000000     0.890000000000     0.672000000000     0          
C503     C      0.125700000000     0.859400000000     0.652000000000     0          
C504     C      0.108000000000     0.828700000000     0.658700000000     0          
C505     C      0.141300000000     0.918500000000     0.665300000000     0          
C506     C      0.134500000000     0.951100000000     0.684200000000     0          
H507     H      0.116980000000     0.952060000000     0.700220000000     0          
C508     C      0.153400000000     0.978900000000     0.678200000000     0          
H509     H      0.149760000000     0.998530000000     0.691040000000     0          
O510     O      0.924650000000     0.376010000000     0.284380000000     0          
C511     C      0.973200000000     0.379870000000     0.233930000000     0          
H512     H      0.950310000000     0.378870000000     0.227680000000     0          
C513     C      0.998500000000     0.382000000000     0.208500000000     0          
H514     H      0.992240000000     0.383300000000     0.185630000000     0          
C515     C      0.093700000000     0.389700000000     0.198400000000     0          
C516     C      0.119800000000     0.390000000000     0.172000000000     0          
C517     C      0.125700000000     0.359400000000     0.152000000000     0          
C518     C      0.108000000000     0.328700000000     0.158700000000     0          
C519     C      0.141300000000     0.418500000000     0.165300000000     0          
C520     C      0.134500000000     0.451100000000     0.184200000000     0          
H521     H      0.116980000000     0.452060000000     0.200220000000     0          
C522     C      0.153400000000     0.478900000000     0.178200000000     0          
H523     H      0.149760000000     0.498530000000     0.191040000000     0          
O524     O      0.424650000000     0.876010000000     0.284380000000     0          
C525     C      0.473200000000     0.879870000000     0.233930000000     0          
H526     H      0.450310000000     0.878870000000     0.227680000000     0          
C527     C      0.498500000000     0.882000000000     0.208500000000     0          
H528     H      0.492240000000     0.883300000000     0.185630000000     0          
O529     O      0.424650000000     0.376010000000     0.784380000000     0          
C530     C      0.473200000000     0.379870000000     0.733930000000     0          
H531     H      0.450310000000     0.378870000000     0.727680000000     0          
C532     C      0.498500000000     0.382000000000     0.708500000000     0          
H533     H      0.492240000000     0.383300000000     0.685630000000     0          
O534     O      0.325350000000     0.376010000000     0.965620000000     0          
C535     C      0.276800000000     0.379870000000     0.016070000000     0          
H536     H      0.299690000000     0.378870000000     0.022320000000     0          
C537     C      0.251500000000     0.382000000000     0.041500000000     0          
H538     H      0.257760000000     0.383300000000     0.064370000000     0          
O539     O      0.325350000000     0.876010000000     0.465620000000     0          
C540     C      0.276800000000     0.879870000000     0.516070000000     0          
H541     H      0.299690000000     0.878870000000     0.522320000000     0          
C542     C      0.251500000000     0.882000000000     0.541500000000     0          
H543     H      0.257760000000     0.883300000000     0.564370000000     0          
O544     O      0.825350000000     0.376010000000     0.465620000000     0          
C545     C      0.776800000000     0.379870000000     0.516070000000     0          
H546     H      0.799690000000     0.378870000000     0.522320000000     0          
C547     C      0.751500000000     0.382000000000     0.541500000000     0          
H548     H      0.757760000000     0.383300000000     0.564370000000     0          
C549     C      0.656300000000     0.389700000000     0.551600000000     0          
C550     C      0.630200000000     0.390000000000     0.578000000000     0          
C551     C      0.624300000000     0.359400000000     0.598000000000     0          
C552     C      0.642000000000     0.328700000000     0.591300000000     0          
C553     C      0.608700000000     0.418500000000     0.584700000000     0          
C554     C      0.615500000000     0.451100000000     0.565800000000     0          
H555     H      0.633020000000     0.452060000000     0.549780000000     0          
C556     C      0.596600000000     0.478900000000     0.571800000000     0          
H557     H      0.600240000000     0.498530000000     0.558960000000     0          
O558     O      0.825350000000     0.876010000000     0.965620000000     0          
C559     C      0.776800000000     0.879870000000     0.016070000000     0          
H560     H      0.799690000000     0.878870000000     0.022320000000     0          
C561     C      0.751500000000     0.882000000000     0.041500000000     0          
H562     H      0.757760000000     0.883300000000     0.064370000000     0          
C563     C      0.656300000000     0.889700000000     0.051600000000     0          
C564     C      0.630200000000     0.890000000000     0.078000000000     0          
C565     C      0.624300000000     0.859400000000     0.098000000000     0          
C566     C      0.642000000000     0.828700000000     0.091300000000     0          
C567     C      0.608700000000     0.918500000000     0.084700000000     0          
C568     C      0.615500000000     0.951100000000     0.065800000000     0          
H569     H      0.633020000000     0.952060000000     0.049780000000     0          
C570     C      0.596600000000     0.978900000000     0.071800000000     0          
H571     H      0.600240000000     0.998530000000     0.058960000000     0          
O572     O      0.424650000000     0.873990000000     0.465620000000     0          
C573     C      0.473200000000     0.870130000000     0.516070000000     0          
H574     H      0.450310000000     0.871130000000     0.522320000000     0          
C575     C      0.498500000000     0.868000000000     0.541500000000     0          
H576     H      0.492240000000     0.866700000000     0.564370000000     0          
C577     C      0.593700000000     0.860300000000     0.551600000000     0          
C578     C      0.619800000000     0.860000000000     0.578000000000     0          
C579     C      0.625700000000     0.890600000000     0.598000000000     0          
C580     C      0.608000000000     0.921300000000     0.591300000000     0          
C581     C      0.641300000000     0.831500000000     0.584700000000     0          
C582     C      0.634500000000     0.798900000000     0.565800000000     0          
H583     H      0.616980000000     0.797940000000     0.549780000000     0          
C584     C      0.653400000000     0.771100000000     0.571800000000     0          
H585     H      0.649760000000     0.751470000000     0.558960000000     0          
O586     O      0.424650000000     0.373990000000     0.965620000000     0          
C587     C      0.473200000000     0.370130000000     0.016070000000     0          
H588     H      0.450310000000     0.371130000000     0.022320000000     0          
C589     C      0.498500000000     0.368000000000     0.041500000000     0          
H590     H      0.492240000000     0.366700000000     0.064370000000     0          
C591     C      0.593700000000     0.360300000000     0.051600000000     0          
C592     C      0.619800000000     0.360000000000     0.078000000000     0          
C593     C      0.625700000000     0.390600000000     0.098000000000     0          
C594     C      0.608000000000     0.421300000000     0.091300000000     0          
C595     C      0.641300000000     0.331500000000     0.084700000000     0          
C596     C      0.634500000000     0.298900000000     0.065800000000     0          
H597     H      0.616980000000     0.297940000000     0.049780000000     0          
C598     C      0.653400000000     0.271100000000     0.071800000000     0          
H599     H      0.649760000000     0.251470000000     0.058960000000     0          
O600     O      0.924650000000     0.873990000000     0.965620000000     0          
C601     C      0.973200000000     0.870130000000     0.016070000000     0          
H602     H      0.950310000000     0.871130000000     0.022320000000     0          
C603     C      0.998500000000     0.868000000000     0.041500000000     0          
H604     H      0.992240000000     0.866700000000     0.064370000000     0          
O605     O      0.924650000000     0.373990000000     0.465620000000     0          
C606     C      0.973200000000     0.370130000000     0.516070000000     0          
H607     H      0.950310000000     0.371130000000     0.522320000000     0          
C608     C      0.998500000000     0.368000000000     0.541500000000     0          
H609     H      0.992240000000     0.366700000000     0.564370000000     0          
O610     O      0.873990000000     0.465620000000     0.424650000000     0          
C611     C      0.870130000000     0.516070000000     0.473200000000     0          
H612     H      0.871130000000     0.522320000000     0.450310000000     0          
C613     C      0.868000000000     0.541500000000     0.498500000000     0          
H614     H      0.866700000000     0.564370000000     0.492240000000     0          
O615     O      0.873990000000     0.965620000000     0.924650000000     0          
C616     C      0.870130000000     0.016070000000     0.973200000000     0          
H617     H      0.871130000000     0.022320000000     0.950310000000     0          
C618     C      0.868000000000     0.041500000000     0.998500000000     0          
H619     H      0.866700000000     0.064370000000     0.992240000000     0          
C620     C      0.860300000000     0.051600000000     0.093700000000     0          
C621     C      0.860000000000     0.078000000000     0.119800000000     0          
C622     C      0.890600000000     0.098000000000     0.125700000000     0          
C623     C      0.921300000000     0.091300000000     0.108000000000     0          
C624     C      0.831500000000     0.084700000000     0.141300000000     0          
C625     C      0.798900000000     0.065800000000     0.134500000000     0          
H626     H      0.797940000000     0.049780000000     0.116980000000     0          
C627     C      0.771100000000     0.071800000000     0.153400000000     0          
H628     H      0.751470000000     0.058960000000     0.149760000000     0          
O629     O      0.373990000000     0.465620000000     0.924650000000     0          
C630     C      0.370130000000     0.516070000000     0.973200000000     0          
H631     H      0.371130000000     0.522320000000     0.950310000000     0          
C632     C      0.368000000000     0.541500000000     0.998500000000     0          
H633     H      0.366700000000     0.564370000000     0.992240000000     0          
O634     O      0.373990000000     0.965620000000     0.424650000000     0          
C635     C      0.370130000000     0.016070000000     0.473200000000     0          
H636     H      0.371130000000     0.022320000000     0.450310000000     0          
C637     C      0.368000000000     0.041500000000     0.498500000000     0          
H638     H      0.366700000000     0.064370000000     0.492240000000     0          
C639     C      0.360300000000     0.051600000000     0.593700000000     0          
C640     C      0.360000000000     0.078000000000     0.619800000000     0          
C641     C      0.390600000000     0.098000000000     0.625700000000     0          
C642     C      0.421300000000     0.091300000000     0.608000000000     0          
C643     C      0.331500000000     0.084700000000     0.641300000000     0          
C644     C      0.298900000000     0.065800000000     0.634500000000     0          
H645     H      0.297940000000     0.049780000000     0.616980000000     0          
C646     C      0.271100000000     0.071800000000     0.653400000000     0          
H647     H      0.251470000000     0.058960000000     0.649760000000     0          
O648     O      0.376010000000     0.965620000000     0.325350000000     0          
C649     C      0.379870000000     0.016070000000     0.276800000000     0          
H650     H      0.378870000000     0.022320000000     0.299690000000     0          
C651     C      0.382000000000     0.041500000000     0.251500000000     0          
H652     H      0.383300000000     0.064370000000     0.257760000000     0          
O653     O      0.376010000000     0.465620000000     0.825350000000     0          
C654     C      0.379870000000     0.516070000000     0.776800000000     0          
H655     H      0.378870000000     0.522320000000     0.799690000000     0          
C656     C      0.382000000000     0.541500000000     0.751500000000     0          
H657     H      0.383300000000     0.564370000000     0.757760000000     0          
O658     O      0.876010000000     0.965620000000     0.825350000000     0          
C659     C      0.879870000000     0.016070000000     0.776800000000     0          
H660     H      0.878870000000     0.022320000000     0.799690000000     0          
C661     C      0.882000000000     0.041500000000     0.751500000000     0          
H662     H      0.883300000000     0.064370000000     0.757760000000     0          
C663     C      0.889700000000     0.051600000000     0.656300000000     0          
C664     C      0.890000000000     0.078000000000     0.630200000000     0          
C665     C      0.859400000000     0.098000000000     0.624300000000     0          
C666     C      0.828700000000     0.091300000000     0.642000000000     0          
C667     C      0.918500000000     0.084700000000     0.608700000000     0          
C668     C      0.951100000000     0.065800000000     0.615500000000     0          
H669     H      0.952060000000     0.049780000000     0.633020000000     0          
C670     C      0.978900000000     0.071800000000     0.596600000000     0          
H671     H      0.998530000000     0.058960000000     0.600240000000     0          
O672     O      0.876010000000     0.465620000000     0.325350000000     0          
C673     C      0.879870000000     0.516070000000     0.276800000000     0          
H674     H      0.878870000000     0.522320000000     0.299690000000     0          
C675     C      0.882000000000     0.541500000000     0.251500000000     0          
H676     H      0.883300000000     0.564370000000     0.257760000000     0          
C677     C      0.889700000000     0.551600000000     0.156300000000     0          
C678     C      0.890000000000     0.578000000000     0.130200000000     0          
C679     C      0.859400000000     0.598000000000     0.124300000000     0          
C680     C      0.828700000000     0.591300000000     0.142000000000     0          
C681     C      0.918500000000     0.584700000000     0.108700000000     0          
C682     C      0.951100000000     0.565800000000     0.115500000000     0          
H683     H      0.952060000000     0.549780000000     0.133020000000     0          
C684     C      0.978900000000     0.571800000000     0.096600000000     0          
H685     H      0.998530000000     0.558960000000     0.100240000000     0          
O686     O      0.876010000000     0.784380000000     0.924650000000     0          
C687     C      0.879870000000     0.733930000000     0.973200000000     0          
H688     H      0.878870000000     0.727680000000     0.950310000000     0          
C689     C      0.882000000000     0.708500000000     0.998500000000     0          
H690     H      0.883300000000     0.685630000000     0.992240000000     0          
O691     O      0.876010000000     0.284380000000     0.424650000000     0          
C692     C      0.879870000000     0.233930000000     0.473200000000     0          
H693     H      0.878870000000     0.227680000000     0.450310000000     0          
C694     C      0.882000000000     0.208500000000     0.498500000000     0          
H695     H      0.883300000000     0.185630000000     0.492240000000     0          
O696     O      0.376010000000     0.784380000000     0.424650000000     0          
C697     C      0.379870000000     0.733930000000     0.473200000000     0          
H698     H      0.378870000000     0.727680000000     0.450310000000     0          
C699     C      0.382000000000     0.708500000000     0.498500000000     0          
H700     H      0.383300000000     0.685630000000     0.492240000000     0          
C701     C      0.389700000000     0.698400000000     0.593700000000     0          
C702     C      0.390000000000     0.672000000000     0.619800000000     0          
C703     C      0.359400000000     0.652000000000     0.625700000000     0          
C704     C      0.328700000000     0.658700000000     0.608000000000     0          
C705     C      0.418500000000     0.665300000000     0.641300000000     0          
C706     C      0.451100000000     0.684200000000     0.634500000000     0          
H707     H      0.452060000000     0.700220000000     0.616980000000     0          
C708     C      0.478900000000     0.678200000000     0.653400000000     0          
H709     H      0.498530000000     0.691040000000     0.649760000000     0          
O710     O      0.376010000000     0.284380000000     0.924650000000     0          
C711     C      0.379870000000     0.233930000000     0.973200000000     0          
H712     H      0.378870000000     0.227680000000     0.950310000000     0          
C713     C      0.382000000000     0.208500000000     0.998500000000     0          
H714     H      0.383300000000     0.185630000000     0.992240000000     0          
C715     C      0.389700000000     0.198400000000     0.093700000000     0          
C716     C      0.390000000000     0.172000000000     0.119800000000     0          
C717     C      0.359400000000     0.152000000000     0.125700000000     0          
C718     C      0.328700000000     0.158700000000     0.108000000000     0          
C719     C      0.418500000000     0.165300000000     0.141300000000     0          
C720     C      0.451100000000     0.184200000000     0.134500000000     0          
H721     H      0.452060000000     0.200220000000     0.116980000000     0          
C722     C      0.478900000000     0.178200000000     0.153400000000     0          
H723     H      0.498530000000     0.191040000000     0.149760000000     0          
O724     O      0.373990000000     0.284380000000     0.825350000000     0          
C725     C      0.370130000000     0.233930000000     0.776800000000     0          
H726     H      0.371130000000     0.227680000000     0.799690000000     0          
C727     C      0.368000000000     0.208500000000     0.751500000000     0          
H728     H      0.366700000000     0.185630000000     0.757760000000     0          
O729     O      0.373990000000     0.784380000000     0.325350000000     0          
C730     C      0.370130000000     0.733930000000     0.276800000000     0          
H731     H      0.371130000000     0.727680000000     0.299690000000     0          
C732     C      0.368000000000     0.708500000000     0.251500000000     0          
H733     H      0.366700000000     0.685630000000     0.257760000000     0          
C734     C      0.360300000000     0.698400000000     0.156300000000     0          
C735     C      0.360000000000     0.672000000000     0.130200000000     0          
C736     C      0.390600000000     0.652000000000     0.124300000000     0          
C737     C      0.421300000000     0.658700000000     0.142000000000     0          
C738     C      0.331500000000     0.665300000000     0.108700000000     0          
C739     C      0.298900000000     0.684200000000     0.115500000000     0          
H740     H      0.297940000000     0.700220000000     0.133020000000     0          
C741     C      0.271100000000     0.678200000000     0.096600000000     0          
H742     H      0.251470000000     0.691040000000     0.100240000000     0          
O743     O      0.873990000000     0.284380000000     0.325350000000     0          
C744     C      0.870130000000     0.233930000000     0.276800000000     0          
H745     H      0.871130000000     0.227680000000     0.299690000000     0          
C746     C      0.868000000000     0.208500000000     0.251500000000     0          
H747     H      0.866700000000     0.185630000000     0.257760000000     0          
O748     O      0.873990000000     0.784380000000     0.825350000000     0          
C749     C      0.870130000000     0.733930000000     0.776800000000     0          
H750     H      0.871130000000     0.727680000000     0.799690000000     0          
C751     C      0.868000000000     0.708500000000     0.751500000000     0          
H752     H      0.866700000000     0.685630000000     0.757760000000     0          
C753     C      0.860300000000     0.698400000000     0.656300000000     0          
C754     C      0.860000000000     0.672000000000     0.630200000000     0          
C755     C      0.890600000000     0.652000000000     0.624300000000     0          
C756     C      0.921300000000     0.658700000000     0.642000000000     0          
C757     C      0.831500000000     0.665300000000     0.608700000000     0          
C758     C      0.798900000000     0.684200000000     0.615500000000     0          
H759     H      0.797940000000     0.700220000000     0.633020000000     0          
C760     C      0.771100000000     0.678200000000     0.596600000000     0          
H761     H      0.751470000000     0.691040000000     0.600240000000     0          
O762     O      0.965620000000     0.325350000000     0.376010000000     0          
C763     C      0.016070000000     0.276800000000     0.379870000000     0          
H764     H      0.022320000000     0.299690000000     0.378870000000     0          
C765     C      0.041500000000     0.251500000000     0.382000000000     0          
H766     H      0.064370000000     0.257760000000     0.383300000000     0          
C767     C      0.051600000000     0.156300000000     0.389700000000     0          
C768     C      0.078000000000     0.130200000000     0.390000000000     0          
C769     C      0.098000000000     0.124300000000     0.359400000000     0          
C770     C      0.091300000000     0.142000000000     0.328700000000     0          
C771     C      0.084700000000     0.108700000000     0.418500000000     0          
C772     C      0.065800000000     0.115500000000     0.451100000000     0          
H773     H      0.049780000000     0.133020000000     0.452060000000     0          
C774     C      0.071800000000     0.096600000000     0.478900000000     0          
H775     H      0.058960000000     0.100240000000     0.498530000000     0          
O776     O      0.965620000000     0.825350000000     0.876010000000     0          
C777     C      0.016070000000     0.776800000000     0.879870000000     0          
H778     H      0.022320000000     0.799690000000     0.878870000000     0          
C779     C      0.041500000000     0.751500000000     0.882000000000     0          
H780     H      0.064370000000     0.757760000000     0.883300000000     0          
C781     C      0.051600000000     0.656300000000     0.889700000000     0          
C782     C      0.078000000000     0.630200000000     0.890000000000     0          
C783     C      0.098000000000     0.624300000000     0.859400000000     0          
C784     C      0.091300000000     0.642000000000     0.828700000000     0          
C785     C      0.084700000000     0.608700000000     0.918500000000     0          
C786     C      0.065800000000     0.615500000000     0.951100000000     0          
H787     H      0.049780000000     0.633020000000     0.952060000000     0          
C788     C      0.071800000000     0.596600000000     0.978900000000     0          
H789     H      0.058960000000     0.600240000000     0.998530000000     0          
O790     O      0.465620000000     0.325350000000     0.876010000000     0          
C791     C      0.516070000000     0.276800000000     0.879870000000     0          
H792     H      0.522320000000     0.299690000000     0.878870000000     0          
C793     C      0.541500000000     0.251500000000     0.882000000000     0          
H794     H      0.564370000000     0.257760000000     0.883300000000     0          
C795     C      0.551600000000     0.156300000000     0.889700000000     0          
C796     C      0.578000000000     0.130200000000     0.890000000000     0          
C797     C      0.598000000000     0.124300000000     0.859400000000     0          
C798     C      0.591300000000     0.142000000000     0.828700000000     0          
C799     C      0.584700000000     0.108700000000     0.918500000000     0          
C800     C      0.565800000000     0.115500000000     0.951100000000     0          
H801     H      0.549780000000     0.133020000000     0.952060000000     0          
C802     C      0.571800000000     0.096600000000     0.978900000000     0          
H803     H      0.558960000000     0.100240000000     0.998530000000     0          
O804     O      0.465620000000     0.825350000000     0.376010000000     0          
C805     C      0.516070000000     0.776800000000     0.379870000000     0          
H806     H      0.522320000000     0.799690000000     0.378870000000     0          
C807     C      0.541500000000     0.751500000000     0.382000000000     0          
H808     H      0.564370000000     0.757760000000     0.383300000000     0          
C809     C      0.551600000000     0.656300000000     0.389700000000     0          
C810     C      0.578000000000     0.630200000000     0.390000000000     0          
C811     C      0.598000000000     0.624300000000     0.359400000000     0          
C812     C      0.591300000000     0.642000000000     0.328700000000     0          
C813     C      0.584700000000     0.608700000000     0.418500000000     0          
C814     C      0.565800000000     0.615500000000     0.451100000000     0          
H815     H      0.549780000000     0.633020000000     0.452060000000     0          
C816     C      0.571800000000     0.596600000000     0.478900000000     0          
H817     H      0.558960000000     0.600240000000     0.498530000000     0          
O818     O      0.465620000000     0.424650000000     0.873990000000     0          
C819     C      0.516070000000     0.473200000000     0.870130000000     0          
H820     H      0.522320000000     0.450310000000     0.871130000000     0          
C821     C      0.541500000000     0.498500000000     0.868000000000     0          
H822     H      0.564370000000     0.492240000000     0.866700000000     0          
O823     O      0.465620000000     0.924650000000     0.373990000000     0          
C824     C      0.516070000000     0.973200000000     0.370130000000     0          
H825     H      0.522320000000     0.950310000000     0.371130000000     0          
C826     C      0.541500000000     0.998500000000     0.368000000000     0          
H827     H      0.564370000000     0.992240000000     0.366700000000     0          
O828     O      0.965620000000     0.424650000000     0.373990000000     0          
C829     C      0.016070000000     0.473200000000     0.370130000000     0          
H830     H      0.022320000000     0.450310000000     0.371130000000     0          
C831     C      0.041500000000     0.498500000000     0.368000000000     0          
H832     H      0.064370000000     0.492240000000     0.366700000000     0          
O833     O      0.965620000000     0.924650000000     0.873990000000     0          
C834     C      0.016070000000     0.973200000000     0.870130000000     0          
H835     H      0.022320000000     0.950310000000     0.871130000000     0          
C836     C      0.041500000000     0.998500000000     0.868000000000     0          
H837     H      0.064370000000     0.992240000000     0.866700000000     0          
O838     O      0.284380000000     0.825350000000     0.373990000000     0          
C839     C      0.233930000000     0.776800000000     0.370130000000     0          
H840     H      0.227680000000     0.799690000000     0.371130000000     0          
C841     C      0.208500000000     0.751500000000     0.368000000000     0          
H842     H      0.185630000000     0.757760000000     0.366700000000     0          
C843     C      0.198400000000     0.656300000000     0.360300000000     0          
C844     C      0.172000000000     0.630200000000     0.360000000000     0          
C845     C      0.152000000000     0.624300000000     0.390600000000     0          
C846     C      0.158700000000     0.642000000000     0.421300000000     0          
C847     C      0.165300000000     0.608700000000     0.331500000000     0          
C848     C      0.184200000000     0.615500000000     0.298900000000     0          
H849     H      0.200220000000     0.633020000000     0.297940000000     0          
C850     C      0.178200000000     0.596600000000     0.271100000000     0          
H851     H      0.191040000000     0.600240000000     0.251470000000     0          
O852     O      0.284380000000     0.325350000000     0.873990000000     0          
C853     C      0.233930000000     0.276800000000     0.870130000000     0          
H854     H      0.227680000000     0.299690000000     0.871130000000     0          
C855     C      0.208500000000     0.251500000000     0.868000000000     0          
H856     H      0.185630000000     0.257760000000     0.866700000000     0          
C857     C      0.198400000000     0.156300000000     0.860300000000     0          
C858     C      0.172000000000     0.130200000000     0.860000000000     0          
C859     C      0.152000000000     0.124300000000     0.890600000000     0          
C860     C      0.158700000000     0.142000000000     0.921300000000     0          
C861     C      0.165300000000     0.108700000000     0.831500000000     0          
C862     C      0.184200000000     0.115500000000     0.798900000000     0          
H863     H      0.200220000000     0.133020000000     0.797940000000     0          
C864     C      0.178200000000     0.096600000000     0.771100000000     0          
H865     H      0.191040000000     0.100240000000     0.751470000000     0          
O866     O      0.784380000000     0.825350000000     0.873990000000     0          
C867     C      0.733930000000     0.776800000000     0.870130000000     0          
H868     H      0.727680000000     0.799690000000     0.871130000000     0          
C869     C      0.708500000000     0.751500000000     0.868000000000     0          
H870     H      0.685630000000     0.757760000000     0.866700000000     0          
C871     C      0.698400000000     0.656300000000     0.860300000000     0          
C872     C      0.672000000000     0.630200000000     0.860000000000     0          
C873     C      0.652000000000     0.624300000000     0.890600000000     0          
C874     C      0.658700000000     0.642000000000     0.921300000000     0          
C875     C      0.665300000000     0.608700000000     0.831500000000     0          
C876     C      0.684200000000     0.615500000000     0.798900000000     0          
H877     H      0.700220000000     0.633020000000     0.797940000000     0          
C878     C      0.678200000000     0.596600000000     0.771100000000     0          
H879     H      0.691040000000     0.600240000000     0.751470000000     0          
O880     O      0.784380000000     0.325350000000     0.373990000000     0          
C881     C      0.733930000000     0.276800000000     0.370130000000     0          
H882     H      0.727680000000     0.299690000000     0.371130000000     0          
C883     C      0.708500000000     0.251500000000     0.368000000000     0          
H884     H      0.685630000000     0.257760000000     0.366700000000     0          
C885     C      0.698400000000     0.156300000000     0.360300000000     0          
C886     C      0.672000000000     0.130200000000     0.360000000000     0          
C887     C      0.652000000000     0.124300000000     0.390600000000     0          
C888     C      0.658700000000     0.142000000000     0.421300000000     0          
C889     C      0.665300000000     0.108700000000     0.331500000000     0          
C890     C      0.684200000000     0.115500000000     0.298900000000     0          
H891     H      0.700220000000     0.133020000000     0.297940000000     0          
C892     C      0.678200000000     0.096600000000     0.271100000000     0          
H893     H      0.691040000000     0.100240000000     0.251470000000     0          
O894     O      0.784380000000     0.924650000000     0.876010000000     0          
C895     C      0.733930000000     0.973200000000     0.879870000000     0          
H896     H      0.727680000000     0.950310000000     0.878870000000     0          
C897     C      0.708500000000     0.998500000000     0.882000000000     0          
H898     H      0.685630000000     0.992240000000     0.883300000000     0          
O899     O      0.784380000000     0.424650000000     0.376010000000     0          
C900     C      0.733930000000     0.473200000000     0.379870000000     0          
H901     H      0.727680000000     0.450310000000     0.378870000000     0          
C902     C      0.708500000000     0.498500000000     0.382000000000     0          
H903     H      0.685630000000     0.492240000000     0.383300000000     0          
O904     O      0.284380000000     0.924650000000     0.376010000000     0          
C905     C      0.233930000000     0.973200000000     0.379870000000     0          
H906     H      0.227680000000     0.950310000000     0.378870000000     0          
C907     C      0.208500000000     0.998500000000     0.382000000000     0          
H908     H      0.185630000000     0.992240000000     0.383300000000     0          
O909     O      0.284380000000     0.424650000000     0.876010000000     0          
C910     C      0.233930000000     0.473200000000     0.879870000000     0          
H911     H      0.227680000000     0.450310000000     0.878870000000     0          
C912     C      0.208500000000     0.498500000000     0.882000000000     0          
H913     H      0.185630000000     0.492240000000     0.883300000000     0          
O914     O      0.876010000000     0.924650000000     0.784380000000     0          
C915     C      0.879870000000     0.973200000000     0.733930000000     0          
H916     H      0.878870000000     0.950310000000     0.727680000000     0          
C917     C      0.882000000000     0.998500000000     0.708500000000     0          
H918     H      0.883300000000     0.992240000000     0.685630000000     0          
O919     O      0.876010000000     0.424650000000     0.284380000000     0          
C920     C      0.879870000000     0.473200000000     0.233930000000     0          
H921     H      0.878870000000     0.450310000000     0.227680000000     0          
C922     C      0.882000000000     0.498500000000     0.208500000000     0          
H923     H      0.883300000000     0.492240000000     0.185630000000     0          
O924     O      0.376010000000     0.924650000000     0.284380000000     0          
C925     C      0.379870000000     0.973200000000     0.233930000000     0          
H926     H      0.378870000000     0.950310000000     0.227680000000     0          
C927     C      0.382000000000     0.998500000000     0.208500000000     0          
H928     H      0.383300000000     0.992240000000     0.185630000000     0          
C929     C      0.389700000000     0.093700000000     0.198400000000     0          
C930     C      0.390000000000     0.119800000000     0.172000000000     0          
C931     C      0.359400000000     0.125700000000     0.152000000000     0          
C932     C      0.328700000000     0.108000000000     0.158700000000     0          
C933     C      0.418500000000     0.141300000000     0.165300000000     0          
C934     C      0.451100000000     0.134500000000     0.184200000000     0          
H935     H      0.452060000000     0.116980000000     0.200220000000     0          
C936     C      0.478900000000     0.153400000000     0.178200000000     0          
H937     H      0.498530000000     0.149760000000     0.191040000000     0          
O938     O      0.376010000000     0.424650000000     0.784380000000     0          
C939     C      0.379870000000     0.473200000000     0.733930000000     0          
H940     H      0.378870000000     0.450310000000     0.727680000000     0          
C941     C      0.382000000000     0.498500000000     0.708500000000     0          
H942     H      0.383300000000     0.492240000000     0.685630000000     0          
C943     C      0.389700000000     0.593700000000     0.698400000000     0          
C944     C      0.390000000000     0.619800000000     0.672000000000     0          
C945     C      0.359400000000     0.625700000000     0.652000000000     0          
C946     C      0.328700000000     0.608000000000     0.658700000000     0          
C947     C      0.418500000000     0.641300000000     0.665300000000     0          
C948     C      0.451100000000     0.634500000000     0.684200000000     0          
H949     H      0.452060000000     0.616980000000     0.700220000000     0          
C950     C      0.478900000000     0.653400000000     0.678200000000     0          
H951     H      0.498530000000     0.649760000000     0.691040000000     0          
O952     O      0.373990000000     0.825350000000     0.284380000000     0          
C953     C      0.370130000000     0.776800000000     0.233930000000     0          
H954     H      0.371130000000     0.799690000000     0.227680000000     0          
C955     C      0.368000000000     0.751500000000     0.208500000000     0          
H956     H      0.366700000000     0.757760000000     0.185630000000     0          
O957     O      0.373990000000     0.325350000000     0.784380000000     0          
C958     C      0.370130000000     0.276800000000     0.733930000000     0          
H959     H      0.371130000000     0.299690000000     0.727680000000     0          
C960     C      0.368000000000     0.251500000000     0.708500000000     0          
H961     H      0.366700000000     0.257760000000     0.685630000000     0          
C962     C      0.360300000000     0.156300000000     0.698400000000     0          
C963     C      0.360000000000     0.130200000000     0.672000000000     0          
C964     C      0.390600000000     0.124300000000     0.652000000000     0          
C965     C      0.421300000000     0.142000000000     0.658700000000     0          
C966     C      0.331500000000     0.108700000000     0.665300000000     0          
C967     C      0.298900000000     0.115500000000     0.684200000000     0          
H968     H      0.297940000000     0.133020000000     0.700220000000     0          
C969     C      0.271100000000     0.096600000000     0.678200000000     0          
H970     H      0.251470000000     0.100240000000     0.691040000000     0          
O971     O      0.873990000000     0.825350000000     0.784380000000     0          
C972     C      0.870130000000     0.776800000000     0.733930000000     0          
H973     H      0.871130000000     0.799690000000     0.727680000000     0          
C974     C      0.868000000000     0.751500000000     0.708500000000     0          
H975     H      0.866700000000     0.757760000000     0.685630000000     0          
O976     O      0.873990000000     0.325350000000     0.284380000000     0          
C977     C      0.870130000000     0.276800000000     0.233930000000     0          
H978     H      0.871130000000     0.299690000000     0.227680000000     0          
C979     C      0.868000000000     0.251500000000     0.208500000000     0          
H980     H      0.866700000000     0.257760000000     0.185630000000     0          
C981     C      0.860300000000     0.156300000000     0.198400000000     0          
C982     C      0.860000000000     0.130200000000     0.172000000000     0          
C983     C      0.890600000000     0.124300000000     0.152000000000     0          
C984     C      0.921300000000     0.142000000000     0.158700000000     0          
C985     C      0.831500000000     0.108700000000     0.165300000000     0          
C986     C      0.798900000000     0.115500000000     0.184200000000     0          
H987     H      0.797940000000     0.133020000000     0.200220000000     0          
C988     C      0.771100000000     0.096600000000     0.178200000000     0          
H989     H      0.751470000000     0.100240000000     0.191040000000     0          
O990     O      0.873990000000     0.424650000000     0.465620000000     0          
C991     C      0.870130000000     0.473200000000     0.516070000000     0          
H992     H      0.871130000000     0.450310000000     0.522320000000     0          
C993     C      0.868000000000     0.498500000000     0.541500000000     0          
H994     H      0.866700000000     0.492240000000     0.564370000000     0          
C995     C      0.860300000000     0.593700000000     0.551600000000     0          
C996     C      0.860000000000     0.619800000000     0.578000000000     0          
C997     C      0.890600000000     0.625700000000     0.598000000000     0          
C998     C      0.921300000000     0.608000000000     0.591300000000     0          
C999     C      0.831500000000     0.641300000000     0.584700000000     0          
C1000    C      0.798900000000     0.634500000000     0.565800000000     0          
H1001    H      0.797940000000     0.616980000000     0.549780000000     0          
C1002    C      0.771100000000     0.653400000000     0.571800000000     0          
H1003    H      0.751470000000     0.649760000000     0.558960000000     0          
O1004    O      0.873990000000     0.924650000000     0.965620000000     0          
C1005    C      0.870130000000     0.973200000000     0.016070000000     0          
H1006    H      0.871130000000     0.950310000000     0.022320000000     0          
C1007    C      0.868000000000     0.998500000000     0.041500000000     0          
H1008    H      0.866700000000     0.992240000000     0.064370000000     0          
O1009    O      0.373990000000     0.424650000000     0.965620000000     0          
C1010    C      0.370130000000     0.473200000000     0.016070000000     0          
H1011    H      0.371130000000     0.450310000000     0.022320000000     0          
C1012    C      0.368000000000     0.498500000000     0.041500000000     0          
H1013    H      0.366700000000     0.492240000000     0.064370000000     0          
C1014    C      0.360300000000     0.593700000000     0.051600000000     0          
C1015    C      0.360000000000     0.619800000000     0.078000000000     0          
C1016    C      0.390600000000     0.625700000000     0.098000000000     0          
C1017    C      0.421300000000     0.608000000000     0.091300000000     0          
C1018    C      0.331500000000     0.641300000000     0.084700000000     0          
C1019    C      0.298900000000     0.634500000000     0.065800000000     0          
H1020    H      0.297940000000     0.616980000000     0.049780000000     0          
C1021    C      0.271100000000     0.653400000000     0.071800000000     0          
H1022    H      0.251470000000     0.649760000000     0.058960000000     0          
O1023    O      0.373990000000     0.924650000000     0.465620000000     0          
C1024    C      0.370130000000     0.973200000000     0.516070000000     0          
H1025    H      0.371130000000     0.950310000000     0.522320000000     0          
C1026    C      0.368000000000     0.998500000000     0.541500000000     0          
H1027    H      0.366700000000     0.992240000000     0.564370000000     0          
O1028    O      0.376010000000     0.325350000000     0.965620000000     0          
C1029    C      0.379870000000     0.276800000000     0.016070000000     0          
H1030    H      0.378870000000     0.299690000000     0.022320000000     0          
C1031    C      0.382000000000     0.251500000000     0.041500000000     0          
H1032    H      0.383300000000     0.257760000000     0.064370000000     0          
O1033    O      0.376010000000     0.825350000000     0.465620000000     0          
C1034    C      0.379870000000     0.776800000000     0.516070000000     0          
H1035    H      0.378870000000     0.799690000000     0.522320000000     0          
C1036    C      0.382000000000     0.751500000000     0.541500000000     0          
H1037    H      0.383300000000     0.757760000000     0.564370000000     0          
O1038    O      0.876010000000     0.325350000000     0.465620000000     0          
C1039    C      0.879870000000     0.276800000000     0.516070000000     0          
H1040    H      0.878870000000     0.299690000000     0.522320000000     0          
C1041    C      0.882000000000     0.251500000000     0.541500000000     0          
H1042    H      0.883300000000     0.257760000000     0.564370000000     0          
C1043    C      0.889700000000     0.156300000000     0.551600000000     0          
C1044    C      0.890000000000     0.130200000000     0.578000000000     0          
C1045    C      0.859400000000     0.124300000000     0.598000000000     0          
C1046    C      0.828700000000     0.142000000000     0.591300000000     0          
C1047    C      0.918500000000     0.108700000000     0.584700000000     0          
C1048    C      0.951100000000     0.115500000000     0.565800000000     0          
H1049    H      0.952060000000     0.133020000000     0.549780000000     0          
C1050    C      0.978900000000     0.096600000000     0.571800000000     0          
H1051    H      0.998530000000     0.100240000000     0.558960000000     0          
O1052    O      0.876010000000     0.825350000000     0.965620000000     0          
C1053    C      0.879870000000     0.776800000000     0.016070000000     0          
H1054    H      0.878870000000     0.799690000000     0.022320000000     0          
C1055    C      0.882000000000     0.751500000000     0.041500000000     0          
H1056    H      0.883300000000     0.757760000000     0.064370000000     0          
C1057    C      0.889700000000     0.656300000000     0.051600000000     0          
C1058    C      0.890000000000     0.630200000000     0.078000000000     0          
C1059    C      0.859400000000     0.624300000000     0.098000000000     0          
C1060    C      0.828700000000     0.642000000000     0.091300000000     0          
C1061    C      0.918500000000     0.608700000000     0.084700000000     0          
C1062    C      0.951100000000     0.615500000000     0.065800000000     0          
H1063    H      0.952060000000     0.633020000000     0.049780000000     0          
C1064    C      0.978900000000     0.596600000000     0.071800000000     0          
H1065    H      0.998530000000     0.600240000000     0.058960000000     0          
O1066    O      0.784380000000     0.876010000000     0.924650000000     0          
C1067    C      0.733930000000     0.879870000000     0.973200000000     0          
H1068    H      0.727680000000     0.878870000000     0.950310000000     0          
C1069    C      0.708500000000     0.882000000000     0.998500000000     0          
H1070    H      0.685630000000     0.883300000000     0.992240000000     0          
O1071    O      0.784380000000     0.376010000000     0.424650000000     0          
C1072    C      0.733930000000     0.379870000000     0.473200000000     0          
H1073    H      0.727680000000     0.378870000000     0.450310000000     0          
C1074    C      0.708500000000     0.382000000000     0.498500000000     0          
H1075    H      0.685630000000     0.383300000000     0.492240000000     0          
O1076    O      0.284380000000     0.876010000000     0.424650000000     0          
C1077    C      0.233930000000     0.879870000000     0.473200000000     0          
H1078    H      0.227680000000     0.878870000000     0.450310000000     0          
C1079    C      0.208500000000     0.882000000000     0.498500000000     0          
H1080    H      0.185630000000     0.883300000000     0.492240000000     0          
C1081    C      0.198400000000     0.889700000000     0.593700000000     0          
C1082    C      0.172000000000     0.890000000000     0.619800000000     0          
C1083    C      0.152000000000     0.859400000000     0.625700000000     0          
C1084    C      0.158700000000     0.828700000000     0.608000000000     0          
C1085    C      0.165300000000     0.918500000000     0.641300000000     0          
C1086    C      0.184200000000     0.951100000000     0.634500000000     0          
H1087    H      0.200220000000     0.952060000000     0.616980000000     0          
C1088    C      0.178200000000     0.978900000000     0.653400000000     0          
H1089    H      0.191040000000     0.998530000000     0.649760000000     0          
O1090    O      0.284380000000     0.376010000000     0.924650000000     0          
C1091    C      0.233930000000     0.379870000000     0.973200000000     0          
H1092    H      0.227680000000     0.378870000000     0.950310000000     0          
C1093    C      0.208500000000     0.382000000000     0.998500000000     0          
H1094    H      0.185630000000     0.383300000000     0.992240000000     0          
C1095    C      0.198400000000     0.389700000000     0.093700000000     0          
C1096    C      0.172000000000     0.390000000000     0.119800000000     0          
C1097    C      0.152000000000     0.359400000000     0.125700000000     0          
C1098    C      0.158700000000     0.328700000000     0.108000000000     0          
C1099    C      0.165300000000     0.418500000000     0.141300000000     0          
C1100    C      0.184200000000     0.451100000000     0.134500000000     0          
H1101    H      0.200220000000     0.452060000000     0.116980000000     0          
C1102    C      0.178200000000     0.478900000000     0.153400000000     0          
H1103    H      0.191040000000     0.498530000000     0.149760000000     0          
O1104    O      0.284380000000     0.373990000000     0.825350000000     0          
C1105    C      0.233930000000     0.370130000000     0.776800000000     0          
H1106    H      0.227680000000     0.371130000000     0.799690000000     0          
C1107    C      0.208500000000     0.368000000000     0.751500000000     0          
H1108    H      0.185630000000     0.366700000000     0.757760000000     0          
O1109    O      0.284380000000     0.873990000000     0.325350000000     0          
C1110    C      0.233930000000     0.870130000000     0.276800000000     0          
H1111    H      0.227680000000     0.871130000000     0.299690000000     0          
C1112    C      0.208500000000     0.868000000000     0.251500000000     0          
H1113    H      0.185630000000     0.866700000000     0.257760000000     0          
O1114    O      0.784380000000     0.373990000000     0.325350000000     0          
C1115    C      0.733930000000     0.370130000000     0.276800000000     0          
H1116    H      0.727680000000     0.371130000000     0.299690000000     0          
C1117    C      0.708500000000     0.368000000000     0.251500000000     0          
H1118    H      0.685630000000     0.366700000000     0.257760000000     0          
C1119    C      0.698400000000     0.360300000000     0.156300000000     0          
C1120    C      0.672000000000     0.360000000000     0.130200000000     0          
C1121    C      0.652000000000     0.390600000000     0.124300000000     0          
C1122    C      0.658700000000     0.421300000000     0.142000000000     0          
C1123    C      0.665300000000     0.331500000000     0.108700000000     0          
C1124    C      0.684200000000     0.298900000000     0.115500000000     0          
H1125    H      0.700220000000     0.297940000000     0.133020000000     0          
C1126    C      0.678200000000     0.271100000000     0.096600000000     0          
H1127    H      0.691040000000     0.251470000000     0.100240000000     0          
O1128    O      0.784380000000     0.873990000000     0.825350000000     0          
C1129    C      0.733930000000     0.870130000000     0.776800000000     0          
H1130    H      0.727680000000     0.871130000000     0.799690000000     0          
C1131    C      0.708500000000     0.868000000000     0.751500000000     0          
H1132    H      0.685630000000     0.866700000000     0.757760000000     0          
C1133    C      0.698400000000     0.860300000000     0.656300000000     0          
C1134    C      0.672000000000     0.860000000000     0.630200000000     0          
C1135    C      0.652000000000     0.890600000000     0.624300000000     0          
C1136    C      0.658700000000     0.921300000000     0.642000000000     0          
C1137    C      0.665300000000     0.831500000000     0.608700000000     0          
C1138    C      0.684200000000     0.798900000000     0.615500000000     0          
H1139    H      0.700220000000     0.797940000000     0.633020000000     0          
C1140    C      0.678200000000     0.771100000000     0.596600000000     0          
H1141    H      0.691040000000     0.751470000000     0.600240000000     0          
O1142    O      0.465620000000     0.873990000000     0.424650000000     0          
C1143    C      0.516070000000     0.870130000000     0.473200000000     0          
H1144    H      0.522320000000     0.871130000000     0.450310000000     0          
C1145    C      0.541500000000     0.868000000000     0.498500000000     0          
H1146    H      0.564370000000     0.866700000000     0.492240000000     0          
O1147    O      0.465620000000     0.373990000000     0.924650000000     0          
C1148    C      0.516070000000     0.370130000000     0.973200000000     0          
H1149    H      0.522320000000     0.371130000000     0.950310000000     0          
C1150    C      0.541500000000     0.368000000000     0.998500000000     0          
H1151    H      0.564370000000     0.366700000000     0.992240000000     0          
O1152    O      0.965620000000     0.873990000000     0.924650000000     0          
C1153    C      0.016070000000     0.870130000000     0.973200000000     0          
H1154    H      0.022320000000     0.871130000000     0.950310000000     0          
C1155    C      0.041500000000     0.868000000000     0.998500000000     0          
H1156    H      0.064370000000     0.866700000000     0.992240000000     0          
C1157    C      0.051600000000     0.860300000000     0.093700000000     0          
C1158    C      0.078000000000     0.860000000000     0.119800000000     0          
C1159    C      0.098000000000     0.890600000000     0.125700000000     0          
C1160    C      0.091300000000     0.921300000000     0.108000000000     0          
C1161    C      0.084700000000     0.831500000000     0.141300000000     0          
C1162    C      0.065800000000     0.798900000000     0.134500000000     0          
H1163    H      0.049780000000     0.797940000000     0.116980000000     0          
C1164    C      0.071800000000     0.771100000000     0.153400000000     0          
H1165    H      0.058960000000     0.751470000000     0.149760000000     0          
O1166    O      0.965620000000     0.373990000000     0.424650000000     0          
C1167    C      0.016070000000     0.370130000000     0.473200000000     0          
H1168    H      0.022320000000     0.371130000000     0.450310000000     0          
C1169    C      0.041500000000     0.368000000000     0.498500000000     0          
H1170    H      0.064370000000     0.366700000000     0.492240000000     0          
C1171    C      0.051600000000     0.360300000000     0.593700000000     0          
C1172    C      0.078000000000     0.360000000000     0.619800000000     0          
C1173    C      0.098000000000     0.390600000000     0.625700000000     0          
C1174    C      0.091300000000     0.421300000000     0.608000000000     0          
C1175    C      0.084700000000     0.331500000000     0.641300000000     0          
C1176    C      0.065800000000     0.298900000000     0.634500000000     0          
H1177    H      0.049780000000     0.297940000000     0.616980000000     0          
C1178    C      0.071800000000     0.271100000000     0.653400000000     0          
H1179    H      0.058960000000     0.251470000000     0.649760000000     0          
O1180    O      0.965620000000     0.376010000000     0.325350000000     0          
C1181    C      0.016070000000     0.379870000000     0.276800000000     0          
H1182    H      0.022320000000     0.378870000000     0.299690000000     0          
C1183    C      0.041500000000     0.382000000000     0.251500000000     0          
H1184    H      0.064370000000     0.383300000000     0.257760000000     0          
O1185    O      0.965620000000     0.876010000000     0.825350000000     0          
C1186    C      0.016070000000     0.879870000000     0.776800000000     0          
H1187    H      0.022320000000     0.878870000000     0.799690000000     0          
C1188    C      0.041500000000     0.882000000000     0.751500000000     0          
H1189    H      0.064370000000     0.883300000000     0.757760000000     0          
O1190    O      0.465620000000     0.376010000000     0.825350000000     0          
C1191    C      0.516070000000     0.379870000000     0.776800000000     0          
H1192    H      0.522320000000     0.378870000000     0.799690000000     0          
C1193    C      0.541500000000     0.382000000000     0.751500000000     0          
H1194    H      0.564370000000     0.383300000000     0.757760000000     0          
C1195    C      0.551600000000     0.389700000000     0.656300000000     0          
C1196    C      0.578000000000     0.390000000000     0.630200000000     0          
C1197    C      0.598000000000     0.359400000000     0.624300000000     0          
C1198    C      0.591300000000     0.328700000000     0.642000000000     0          
C1199    C      0.584700000000     0.418500000000     0.608700000000     0          
C1200    C      0.565800000000     0.451100000000     0.615500000000     0          
H1201    H      0.549780000000     0.452060000000     0.633020000000     0          
C1202    C      0.571800000000     0.478900000000     0.596600000000     0          
H1203    H      0.558960000000     0.498530000000     0.600240000000     0          
O1204    O      0.465620000000     0.876010000000     0.325350000000     0          
C1205    C      0.516070000000     0.879870000000     0.276800000000     0          
H1206    H      0.522320000000     0.878870000000     0.299690000000     0          
C1207    C      0.541500000000     0.882000000000     0.251500000000     0          
H1208    H      0.564370000000     0.883300000000     0.257760000000     0          
C1209    C      0.551600000000     0.889700000000     0.156300000000     0          
C1210    C      0.578000000000     0.890000000000     0.130200000000     0          
C1211    C      0.598000000000     0.859400000000     0.124300000000     0          
C1212    C      0.591300000000     0.828700000000     0.142000000000     0          
C1213    C      0.584700000000     0.918500000000     0.108700000000     0          
C1214    C      0.565800000000     0.951100000000     0.115500000000     0          
H1215    H      0.549780000000     0.952060000000     0.133020000000     0          
C1216    C      0.571800000000     0.978900000000     0.096600000000     0          
H1217    H      0.558960000000     0.998530000000     0.100240000000     0          
O1218    O      0.924650000000     0.784380000000     0.876010000000     0          
C1219    C      0.973200000000     0.733930000000     0.879870000000     0          
H1220    H      0.950310000000     0.727680000000     0.878870000000     0          
C1221    C      0.998500000000     0.708500000000     0.882000000000     0          
H1222    H      0.992240000000     0.685630000000     0.883300000000     0          
O1223    O      0.924650000000     0.284380000000     0.376010000000     0          
C1224    C      0.973200000000     0.233930000000     0.379870000000     0          
H1225    H      0.950310000000     0.227680000000     0.378870000000     0          
C1226    C      0.998500000000     0.208500000000     0.382000000000     0          
H1227    H      0.992240000000     0.185630000000     0.383300000000     0          
O1228    O      0.424650000000     0.784380000000     0.376010000000     0          
C1229    C      0.473200000000     0.733930000000     0.379870000000     0          
H1230    H      0.450310000000     0.727680000000     0.378870000000     0          
C1231    C      0.498500000000     0.708500000000     0.382000000000     0          
H1232    H      0.492240000000     0.685630000000     0.383300000000     0          
O1233    O      0.424650000000     0.284380000000     0.876010000000     0          
C1234    C      0.473200000000     0.233930000000     0.879870000000     0          
H1235    H      0.450310000000     0.227680000000     0.878870000000     0          
C1236    C      0.498500000000     0.208500000000     0.882000000000     0          
H1237    H      0.492240000000     0.185630000000     0.883300000000     0          
O1238    O      0.825350000000     0.284380000000     0.373990000000     0          
C1239    C      0.776800000000     0.233930000000     0.370130000000     0          
H1240    H      0.799690000000     0.227680000000     0.371130000000     0          
C1241    C      0.751500000000     0.208500000000     0.368000000000     0          
H1242    H      0.757760000000     0.185630000000     0.366700000000     0          
O1243    O      0.825350000000     0.784380000000     0.873990000000     0          
C1244    C      0.776800000000     0.733930000000     0.870130000000     0          
H1245    H      0.799690000000     0.727680000000     0.871130000000     0          
C1246    C      0.751500000000     0.708500000000     0.868000000000     0          
H1247    H      0.757760000000     0.685630000000     0.866700000000     0          
O1248    O      0.325350000000     0.284380000000     0.873990000000     0          
C1249    C      0.276800000000     0.233930000000     0.870130000000     0          
H1250    H      0.299690000000     0.227680000000     0.871130000000     0          
C1251    C      0.251500000000     0.208500000000     0.868000000000     0          
H1252    H      0.257760000000     0.185630000000     0.866700000000     0          
O1253    O      0.325350000000     0.784380000000     0.373990000000     0          
C1254    C      0.276800000000     0.733930000000     0.370130000000     0          
H1255    H      0.299690000000     0.727680000000     0.371130000000     0          
C1256    C      0.251500000000     0.708500000000     0.368000000000     0          
H1257    H      0.257760000000     0.685630000000     0.366700000000     0          
O1258    O      0.424650000000     0.465620000000     0.873990000000     0          
C1259    C      0.473200000000     0.516070000000     0.870130000000     0          
H1260    H      0.450310000000     0.522320000000     0.871130000000     0          
C1261    C      0.498500000000     0.541500000000     0.868000000000     0          
H1262    H      0.492240000000     0.564370000000     0.866700000000     0          
C1263    C      0.593700000000     0.551600000000     0.860300000000     0          
C1264    C      0.619800000000     0.578000000000     0.860000000000     0          
C1265    C      0.625700000000     0.598000000000     0.890600000000     0          
C1266    C      0.608000000000     0.591300000000     0.921300000000     0          
C1267    C      0.641300000000     0.584700000000     0.831500000000     0          
C1268    C      0.634500000000     0.565800000000     0.798900000000     0          
H1269    H      0.616980000000     0.549780000000     0.797940000000     0          
C1270    C      0.653400000000     0.571800000000     0.771100000000     0          
H1271    H      0.649760000000     0.558960000000     0.751470000000     0          
O1272    O      0.424650000000     0.965620000000     0.373990000000     0          
C1273    C      0.473200000000     0.016070000000     0.370130000000     0          
H1274    H      0.450310000000     0.022320000000     0.371130000000     0          
C1275    C      0.498500000000     0.041500000000     0.368000000000     0          
H1276    H      0.492240000000     0.064370000000     0.366700000000     0          
C1277    C      0.593700000000     0.051600000000     0.360300000000     0          
C1278    C      0.619800000000     0.078000000000     0.360000000000     0          
C1279    C      0.625700000000     0.098000000000     0.390600000000     0          
C1280    C      0.608000000000     0.091300000000     0.421300000000     0          
C1281    C      0.641300000000     0.084700000000     0.331500000000     0          
C1282    C      0.634500000000     0.065800000000     0.298900000000     0          
H1283    H      0.616980000000     0.049780000000     0.297940000000     0          
C1284    C      0.653400000000     0.071800000000     0.271100000000     0          
H1285    H      0.649760000000     0.058960000000     0.251470000000     0          
O1286    O      0.924650000000     0.465620000000     0.373990000000     0          
C1287    C      0.973200000000     0.516070000000     0.370130000000     0          
H1288    H      0.950310000000     0.522320000000     0.371130000000     0          
C1289    C      0.998500000000     0.541500000000     0.368000000000     0          
H1290    H      0.992240000000     0.564370000000     0.366700000000     0          
C1291    C      0.093700000000     0.551600000000     0.360300000000     0          
C1292    C      0.119800000000     0.578000000000     0.360000000000     0          
C1293    C      0.125700000000     0.598000000000     0.390600000000     0          
C1294    C      0.108000000000     0.591300000000     0.421300000000     0          
C1295    C      0.141300000000     0.584700000000     0.331500000000     0          
C1296    C      0.134500000000     0.565800000000     0.298900000000     0          
H1297    H      0.116980000000     0.549780000000     0.297940000000     0          
C1298    C      0.153400000000     0.571800000000     0.271100000000     0          
H1299    H      0.149760000000     0.558960000000     0.251470000000     0          
O1300    O      0.924650000000     0.965620000000     0.873990000000     0          
C1301    C      0.973200000000     0.016070000000     0.870130000000     0          
H1302    H      0.950310000000     0.022320000000     0.871130000000     0          
C1303    C      0.998500000000     0.041500000000     0.868000000000     0          
H1304    H      0.992240000000     0.064370000000     0.866700000000     0          
C1305    C      0.093700000000     0.051600000000     0.860300000000     0          
C1306    C      0.119800000000     0.078000000000     0.860000000000     0          
C1307    C      0.125700000000     0.098000000000     0.890600000000     0          
C1308    C      0.108000000000     0.091300000000     0.921300000000     0          
C1309    C      0.141300000000     0.084700000000     0.831500000000     0          
C1310    C      0.134500000000     0.065800000000     0.798900000000     0          
H1311    H      0.116980000000     0.049780000000     0.797940000000     0          
C1312    C      0.153400000000     0.071800000000     0.771100000000     0          
H1313    H      0.149760000000     0.058960000000     0.751470000000     0          
O1314    O      0.325350000000     0.965620000000     0.376010000000     0          
C1315    C      0.276800000000     0.016070000000     0.379870000000     0          
H1316    H      0.299690000000     0.022320000000     0.378870000000     0          
C1317    C      0.251500000000     0.041500000000     0.382000000000     0          
H1318    H      0.257760000000     0.064370000000     0.383300000000     0          
C1319    C      0.156300000000     0.051600000000     0.389700000000     0          
C1320    C      0.130200000000     0.078000000000     0.390000000000     0          
C1321    C      0.124300000000     0.098000000000     0.359400000000     0          
C1322    C      0.142000000000     0.091300000000     0.328700000000     0          
C1323    C      0.108700000000     0.084700000000     0.418500000000     0          
C1324    C      0.115500000000     0.065800000000     0.451100000000     0          
H1325    H      0.133020000000     0.049780000000     0.452060000000     0          
C1326    C      0.096600000000     0.071800000000     0.478900000000     0          
H1327    H      0.100240000000     0.058960000000     0.498530000000     0          
O1328    O      0.325350000000     0.465620000000     0.876010000000     0          
C1329    C      0.276800000000     0.516070000000     0.879870000000     0          
H1330    H      0.299690000000     0.522320000000     0.878870000000     0          
C1331    C      0.251500000000     0.541500000000     0.882000000000     0          
H1332    H      0.257760000000     0.564370000000     0.883300000000     0          
C1333    C      0.156300000000     0.551600000000     0.889700000000     0          
C1334    C      0.130200000000     0.578000000000     0.890000000000     0          
C1335    C      0.124300000000     0.598000000000     0.859400000000     0          
C1336    C      0.142000000000     0.591300000000     0.828700000000     0          
C1337    C      0.108700000000     0.584700000000     0.918500000000     0          
C1338    C      0.115500000000     0.565800000000     0.951100000000     0          
H1339    H      0.133020000000     0.549780000000     0.952060000000     0          
C1340    C      0.096600000000     0.571800000000     0.978900000000     0          
H1341    H      0.100240000000     0.558960000000     0.998530000000     0          
O1342    O      0.825350000000     0.965620000000     0.876010000000     0          
C1343    C      0.776800000000     0.016070000000     0.879870000000     0          
H1344    H      0.799690000000     0.022320000000     0.878870000000     0          
C1345    C      0.751500000000     0.041500000000     0.882000000000     0          
H1346    H      0.757760000000     0.064370000000     0.883300000000     0          
C1347    C      0.656300000000     0.051600000000     0.889700000000     0          
C1348    C      0.630200000000     0.078000000000     0.890000000000     0          
C1349    C      0.624300000000     0.098000000000     0.859400000000     0          
C1350    C      0.642000000000     0.091300000000     0.828700000000     0          
C1351    C      0.608700000000     0.084700000000     0.918500000000     0          
C1352    C      0.615500000000     0.065800000000     0.951100000000     0          
H1353    H      0.633020000000     0.049780000000     0.952060000000     0          
C1354    C      0.596600000000     0.071800000000     0.978900000000     0          
H1355    H      0.600240000000     0.058960000000     0.998530000000     0          
O1356    O      0.825350000000     0.465620000000     0.376010000000     0          
C1357    C      0.776800000000     0.516070000000     0.379870000000     0          
H1358    H      0.799690000000     0.522320000000     0.378870000000     0          
C1359    C      0.751500000000     0.541500000000     0.382000000000     0          
H1360    H      0.757760000000     0.564370000000     0.383300000000     0          
C1361    C      0.656300000000     0.551600000000     0.389700000000     0          
C1362    C      0.630200000000     0.578000000000     0.390000000000     0          
C1363    C      0.624300000000     0.598000000000     0.359400000000     0          
C1364    C      0.642000000000     0.591300000000     0.328700000000     0          
C1365    C      0.608700000000     0.584700000000     0.418500000000     0          
C1366    C      0.615500000000     0.565800000000     0.451100000000     0          
H1367    H      0.633020000000     0.549780000000     0.452060000000     0          
C1368    C      0.596600000000     0.571800000000     0.478900000000     0          
H1369    H      0.600240000000     0.558960000000     0.498530000000     0          
O1370    O      0.174650000000     0.626010000000     0.715620000000     0          
C1371    C      0.223200000000     0.629870000000     0.766070000000     0          
H1372    H      0.200310000000     0.628870000000     0.772320000000     0          
C1373    C      0.248500000000     0.632000000000     0.791500000000     0          
H1374    H      0.242240000000     0.633300000000     0.814370000000     0          
O1375    O      0.174650000000     0.126010000000     0.215620000000     0          
C1376    C      0.223200000000     0.129870000000     0.266070000000     0          
H1377    H      0.200310000000     0.128870000000     0.272320000000     0          
C1378    C      0.248500000000     0.132000000000     0.291500000000     0          
H1379    H      0.242240000000     0.133300000000     0.314370000000     0          
C1380    C      0.343700000000     0.139700000000     0.301600000000     0          
C1381    C      0.369800000000     0.140000000000     0.328000000000     0          
C1382    C      0.375700000000     0.109400000000     0.348000000000     0          
C1383    C      0.358000000000     0.078700000000     0.341300000000     0          
C1384    C      0.391300000000     0.168500000000     0.334700000000     0          
C1385    C      0.384500000000     0.201100000000     0.315800000000     0          
H1386    H      0.366980000000     0.202060000000     0.299780000000     0          
C1387    C      0.403400000000     0.228900000000     0.321800000000     0          
H1388    H      0.399760000000     0.248530000000     0.308960000000     0          
O1389    O      0.674650000000     0.626010000000     0.215620000000     0          
C1390    C      0.723200000000     0.629870000000     0.266070000000     0          
H1391    H      0.700310000000     0.628870000000     0.272320000000     0          
C1392    C      0.748500000000     0.632000000000     0.291500000000     0          
H1393    H      0.742240000000     0.633300000000     0.314370000000     0          
C1394    C      0.843700000000     0.639700000000     0.301600000000     0          
C1395    C      0.869800000000     0.640000000000     0.328000000000     0          
C1396    C      0.875700000000     0.609400000000     0.348000000000     0          
C1397    C      0.858000000000     0.578700000000     0.341300000000     0          
C1398    C      0.891300000000     0.668500000000     0.334700000000     0          
C1399    C      0.884500000000     0.701100000000     0.315800000000     0          
H1400    H      0.866980000000     0.702060000000     0.299780000000     0          
C1401    C      0.903400000000     0.728900000000     0.321800000000     0          
H1402    H      0.899760000000     0.748530000000     0.308960000000     0          
O1403    O      0.674650000000     0.126010000000     0.715620000000     0          
C1404    C      0.723200000000     0.129870000000     0.766070000000     0          
H1405    H      0.700310000000     0.128870000000     0.772320000000     0          
C1406    C      0.748500000000     0.132000000000     0.791500000000     0          
H1407    H      0.742240000000     0.133300000000     0.814370000000     0          
C1408    C      0.843700000000     0.139700000000     0.801600000000     0          
C1409    C      0.869800000000     0.140000000000     0.828000000000     0          
C1410    C      0.875700000000     0.109400000000     0.848000000000     0          
C1411    C      0.858000000000     0.078700000000     0.841300000000     0          
C1412    C      0.891300000000     0.168500000000     0.834700000000     0          
C1413    C      0.884500000000     0.201100000000     0.815800000000     0          
H1414    H      0.866980000000     0.202060000000     0.799780000000     0          
C1415    C      0.903400000000     0.228900000000     0.821800000000     0          
H1416    H      0.899760000000     0.248530000000     0.808960000000     0          
O1417    O      0.075350000000     0.123990000000     0.215620000000     0          
C1418    C      0.026800000000     0.120130000000     0.266070000000     0          
H1419    H      0.049690000000     0.121130000000     0.272320000000     0          
C1420    C      0.001500000000     0.118000000000     0.291500000000     0          
H1421    H      0.007760000000     0.116700000000     0.314370000000     0          
C1422    C      0.906300000000     0.110300000000     0.301600000000     0          
C1423    C      0.880200000000     0.110000000000     0.328000000000     0          
C1424    C      0.874300000000     0.140600000000     0.348000000000     0          
C1425    C      0.892000000000     0.171300000000     0.341300000000     0          
C1426    C      0.858700000000     0.081500000000     0.334700000000     0          
C1427    C      0.865500000000     0.048900000000     0.315800000000     0          
H1428    H      0.883020000000     0.047940000000     0.299780000000     0          
C1429    C      0.846600000000     0.021100000000     0.321800000000     0          
H1430    H      0.850240000000     0.001470000000     0.308960000000     0          
O1431    O      0.075350000000     0.623990000000     0.715620000000     0          
C1432    C      0.026800000000     0.620130000000     0.766070000000     0          
H1433    H      0.049690000000     0.621130000000     0.772320000000     0          
C1434    C      0.001500000000     0.618000000000     0.791500000000     0          
H1435    H      0.007760000000     0.616700000000     0.814370000000     0          
C1436    C      0.906300000000     0.610300000000     0.801600000000     0          
C1437    C      0.880200000000     0.610000000000     0.828000000000     0          
C1438    C      0.874300000000     0.640600000000     0.848000000000     0          
C1439    C      0.892000000000     0.671300000000     0.841300000000     0          
C1440    C      0.858700000000     0.581500000000     0.834700000000     0          
C1441    C      0.865500000000     0.548900000000     0.815800000000     0          
H1442    H      0.883020000000     0.547940000000     0.799780000000     0          
C1443    C      0.846600000000     0.521100000000     0.821800000000     0          
H1444    H      0.850240000000     0.501470000000     0.808960000000     0          
O1445    O      0.575350000000     0.123990000000     0.715620000000     0          
C1446    C      0.526800000000     0.120130000000     0.766070000000     0          
H1447    H      0.549690000000     0.121130000000     0.772320000000     0          
C1448    C      0.501500000000     0.118000000000     0.791500000000     0          
H1449    H      0.507760000000     0.116700000000     0.814370000000     0          
C1450    C      0.406300000000     0.110300000000     0.801600000000     0          
C1451    C      0.380200000000     0.110000000000     0.828000000000     0          
C1452    C      0.374300000000     0.140600000000     0.848000000000     0          
C1453    C      0.392000000000     0.171300000000     0.841300000000     0          
C1454    C      0.358700000000     0.081500000000     0.834700000000     0          
C1455    C      0.365500000000     0.048900000000     0.815800000000     0          
H1456    H      0.383020000000     0.047940000000     0.799780000000     0          
C1457    C      0.346600000000     0.021100000000     0.821800000000     0          
H1458    H      0.350240000000     0.001470000000     0.808960000000     0          
O1459    O      0.575350000000     0.623990000000     0.215620000000     0          
C1460    C      0.526800000000     0.620130000000     0.266070000000     0          
H1461    H      0.549690000000     0.621130000000     0.272320000000     0          
C1462    C      0.501500000000     0.618000000000     0.291500000000     0          
H1463    H      0.507760000000     0.616700000000     0.314370000000     0          
O1464    O      0.674650000000     0.623990000000     0.034380000000     0          
C1465    C      0.723200000000     0.620130000000     0.983930000000     0          
H1466    H      0.700310000000     0.621130000000     0.977680000000     0          
C1467    C      0.748500000000     0.618000000000     0.958500000000     0          
H1468    H      0.742240000000     0.616700000000     0.935630000000     0          
O1469    O      0.674650000000     0.123990000000     0.534380000000     0          
C1470    C      0.723200000000     0.120130000000     0.483930000000     0          
H1471    H      0.700310000000     0.121130000000     0.477680000000     0          
C1472    C      0.748500000000     0.118000000000     0.458500000000     0          
H1473    H      0.742240000000     0.116700000000     0.435630000000     0          
O1474    O      0.174650000000     0.623990000000     0.534380000000     0          
C1475    C      0.223200000000     0.620130000000     0.483930000000     0          
H1476    H      0.200310000000     0.621130000000     0.477680000000     0          
C1477    C      0.248500000000     0.618000000000     0.458500000000     0          
H1478    H      0.242240000000     0.616700000000     0.435630000000     0          
C1479    C      0.343700000000     0.610300000000     0.448400000000     0          
C1480    C      0.369800000000     0.610000000000     0.422000000000     0          
C1481    C      0.375700000000     0.640600000000     0.402000000000     0          
C1482    C      0.358000000000     0.671300000000     0.408700000000     0          
C1483    C      0.391300000000     0.581500000000     0.415300000000     0          
C1484    C      0.384500000000     0.548900000000     0.434200000000     0          
H1485    H      0.366980000000     0.547940000000     0.450220000000     0          
C1486    C      0.403400000000     0.521100000000     0.428200000000     0          
H1487    H      0.399760000000     0.501470000000     0.441040000000     0          
O1488    O      0.174650000000     0.123990000000     0.034380000000     0          
C1489    C      0.223200000000     0.120130000000     0.983930000000     0          
H1490    H      0.200310000000     0.121130000000     0.977680000000     0          
C1491    C      0.248500000000     0.118000000000     0.958500000000     0          
H1492    H      0.242240000000     0.116700000000     0.935630000000     0          
O1493    O      0.575350000000     0.126010000000     0.534380000000     0          
C1494    C      0.526800000000     0.129870000000     0.483930000000     0          
H1495    H      0.549690000000     0.128870000000     0.477680000000     0          
C1496    C      0.501500000000     0.132000000000     0.458500000000     0          
H1497    H      0.507760000000     0.133300000000     0.435630000000     0          
O1498    O      0.575350000000     0.626010000000     0.034380000000     0          
C1499    C      0.526800000000     0.629870000000     0.983930000000     0          
H1500    H      0.549690000000     0.628870000000     0.977680000000     0          
C1501    C      0.501500000000     0.632000000000     0.958500000000     0          
H1502    H      0.507760000000     0.633300000000     0.935630000000     0          
C1503    C      0.406300000000     0.639700000000     0.948400000000     0          
C1504    C      0.380200000000     0.640000000000     0.922000000000     0          
C1505    C      0.374300000000     0.609400000000     0.902000000000     0          
C1506    C      0.392000000000     0.578700000000     0.908700000000     0          
C1507    C      0.358700000000     0.668500000000     0.915300000000     0          
C1508    C      0.365500000000     0.701100000000     0.934200000000     0          
H1509    H      0.383020000000     0.702060000000     0.950220000000     0          
C1510    C      0.346600000000     0.728900000000     0.928200000000     0          
H1511    H      0.350240000000     0.748530000000     0.941040000000     0          
O1512    O      0.075350000000     0.126010000000     0.034380000000     0          
C1513    C      0.026800000000     0.129870000000     0.983930000000     0          
H1514    H      0.049690000000     0.128870000000     0.977680000000     0          
C1515    C      0.001500000000     0.132000000000     0.958500000000     0          
H1516    H      0.007760000000     0.133300000000     0.935630000000     0          
O1517    O      0.075350000000     0.626010000000     0.534380000000     0          
C1518    C      0.026800000000     0.629870000000     0.483930000000     0          
H1519    H      0.049690000000     0.628870000000     0.477680000000     0          
C1520    C      0.001500000000     0.632000000000     0.458500000000     0          
H1521    H      0.007760000000     0.633300000000     0.435630000000     0          
O1522    O      0.126010000000     0.534380000000     0.575350000000     0          
C1523    C      0.129870000000     0.483930000000     0.526800000000     0          
H1524    H      0.128870000000     0.477680000000     0.549690000000     0          
C1525    C      0.132000000000     0.458500000000     0.501500000000     0          
H1526    H      0.133300000000     0.435630000000     0.507760000000     0          
C1527    C      0.139700000000     0.448400000000     0.406300000000     0          
C1528    C      0.140000000000     0.422000000000     0.380200000000     0          
C1529    C      0.109400000000     0.402000000000     0.374300000000     0          
C1530    C      0.078700000000     0.408700000000     0.392000000000     0          
C1531    C      0.168500000000     0.415300000000     0.358700000000     0          
C1532    C      0.201100000000     0.434200000000     0.365500000000     0          
H1533    H      0.202060000000     0.450220000000     0.383020000000     0          
C1534    C      0.228900000000     0.428200000000     0.346600000000     0          
H1535    H      0.248530000000     0.441040000000     0.350240000000     0          
O1536    O      0.126010000000     0.034380000000     0.075350000000     0          
C1537    C      0.129870000000     0.983930000000     0.026800000000     0          
H1538    H      0.128870000000     0.977680000000     0.049690000000     0          
C1539    C      0.132000000000     0.958500000000     0.001500000000     0          
H1540    H      0.133300000000     0.935630000000     0.007760000000     0          
C1541    C      0.139700000000     0.948400000000     0.906300000000     0          
C1542    C      0.140000000000     0.922000000000     0.880200000000     0          
C1543    C      0.109400000000     0.902000000000     0.874300000000     0          
C1544    C      0.078700000000     0.908700000000     0.892000000000     0          
C1545    C      0.168500000000     0.915300000000     0.858700000000     0          
C1546    C      0.201100000000     0.934200000000     0.865500000000     0          
H1547    H      0.202060000000     0.950220000000     0.883020000000     0          
C1548    C      0.228900000000     0.928200000000     0.846600000000     0          
H1549    H      0.248530000000     0.941040000000     0.850240000000     0          
O1550    O      0.626010000000     0.534380000000     0.075350000000     0          
C1551    C      0.629870000000     0.483930000000     0.026800000000     0          
H1552    H      0.628870000000     0.477680000000     0.049690000000     0          
C1553    C      0.632000000000     0.458500000000     0.001500000000     0          
H1554    H      0.633300000000     0.435630000000     0.007760000000     0          
C1555    C      0.639700000000     0.448400000000     0.906300000000     0          
C1556    C      0.640000000000     0.422000000000     0.880200000000     0          
C1557    C      0.609400000000     0.402000000000     0.874300000000     0          
C1558    C      0.578700000000     0.408700000000     0.892000000000     0          
C1559    C      0.668500000000     0.415300000000     0.858700000000     0          
C1560    C      0.701100000000     0.434200000000     0.865500000000     0          
H1561    H      0.702060000000     0.450220000000     0.883020000000     0          
C1562    C      0.728900000000     0.428200000000     0.846600000000     0          
H1563    H      0.748530000000     0.441040000000     0.850240000000     0          
O1564    O      0.626010000000     0.034380000000     0.575350000000     0          
C1565    C      0.629870000000     0.983930000000     0.526800000000     0          
H1566    H      0.628870000000     0.977680000000     0.549690000000     0          
C1567    C      0.632000000000     0.958500000000     0.501500000000     0          
H1568    H      0.633300000000     0.935630000000     0.507760000000     0          
C1569    C      0.639700000000     0.948400000000     0.406300000000     0          
C1570    C      0.640000000000     0.922000000000     0.380200000000     0          
C1571    C      0.609400000000     0.902000000000     0.374300000000     0          
C1572    C      0.578700000000     0.908700000000     0.392000000000     0          
C1573    C      0.668500000000     0.915300000000     0.358700000000     0          
C1574    C      0.701100000000     0.934200000000     0.365500000000     0          
H1575    H      0.702060000000     0.950220000000     0.383020000000     0          
C1576    C      0.728900000000     0.928200000000     0.346600000000     0          
H1577    H      0.748530000000     0.941040000000     0.350240000000     0          
O1578    O      0.623990000000     0.034380000000     0.674650000000     0          
C1579    C      0.620130000000     0.983930000000     0.723200000000     0          
H1580    H      0.621130000000     0.977680000000     0.700310000000     0          
C1581    C      0.618000000000     0.958500000000     0.748500000000     0          
H1582    H      0.616700000000     0.935630000000     0.742240000000     0          
C1583    C      0.610300000000     0.948400000000     0.843700000000     0          
C1584    C      0.610000000000     0.922000000000     0.869800000000     0          
C1585    C      0.640600000000     0.902000000000     0.875700000000     0          
C1586    C      0.671300000000     0.908700000000     0.858000000000     0          
C1587    C      0.581500000000     0.915300000000     0.891300000000     0          
C1588    C      0.548900000000     0.934200000000     0.884500000000     0          
H1589    H      0.547940000000     0.950220000000     0.866980000000     0          
C1590    C      0.521100000000     0.928200000000     0.903400000000     0          
H1591    H      0.501470000000     0.941040000000     0.899760000000     0          
O1592    O      0.623990000000     0.534380000000     0.174650000000     0          
C1593    C      0.620130000000     0.483930000000     0.223200000000     0          
H1594    H      0.621130000000     0.477680000000     0.200310000000     0          
C1595    C      0.618000000000     0.458500000000     0.248500000000     0          
H1596    H      0.616700000000     0.435630000000     0.242240000000     0          
C1597    C      0.610300000000     0.448400000000     0.343700000000     0          
C1598    C      0.610000000000     0.422000000000     0.369800000000     0          
C1599    C      0.640600000000     0.402000000000     0.375700000000     0          
C1600    C      0.671300000000     0.408700000000     0.358000000000     0          
C1601    C      0.581500000000     0.415300000000     0.391300000000     0          
C1602    C      0.548900000000     0.434200000000     0.384500000000     0          
H1603    H      0.547940000000     0.450220000000     0.366980000000     0          
C1604    C      0.521100000000     0.428200000000     0.403400000000     0          
H1605    H      0.501470000000     0.441040000000     0.399760000000     0          
O1606    O      0.123990000000     0.034380000000     0.174650000000     0          
C1607    C      0.120130000000     0.983930000000     0.223200000000     0          
H1608    H      0.121130000000     0.977680000000     0.200310000000     0          
C1609    C      0.118000000000     0.958500000000     0.248500000000     0          
H1610    H      0.116700000000     0.935630000000     0.242240000000     0          
O1611    O      0.123990000000     0.534380000000     0.674650000000     0          
C1612    C      0.120130000000     0.483930000000     0.723200000000     0          
H1613    H      0.121130000000     0.477680000000     0.700310000000     0          
C1614    C      0.118000000000     0.458500000000     0.748500000000     0          
H1615    H      0.116700000000     0.435630000000     0.742240000000     0          
O1616    O      0.123990000000     0.215620000000     0.075350000000     0          
C1617    C      0.120130000000     0.266070000000     0.026800000000     0          
H1618    H      0.121130000000     0.272320000000     0.049690000000     0          
C1619    C      0.118000000000     0.291500000000     0.001500000000     0          
H1620    H      0.116700000000     0.314370000000     0.007760000000     0          
C1621    C      0.110300000000     0.301600000000     0.906300000000     0          
C1622    C      0.110000000000     0.328000000000     0.880200000000     0          
C1623    C      0.140600000000     0.348000000000     0.874300000000     0          
C1624    C      0.171300000000     0.341300000000     0.892000000000     0          
C1625    C      0.081500000000     0.334700000000     0.858700000000     0          
C1626    C      0.048900000000     0.315800000000     0.865500000000     0          
H1627    H      0.047940000000     0.299780000000     0.883020000000     0          
C1628    C      0.021100000000     0.321800000000     0.846600000000     0          
H1629    H      0.001470000000     0.308960000000     0.850240000000     0          
O1630    O      0.123990000000     0.715620000000     0.575350000000     0          
C1631    C      0.120130000000     0.766070000000     0.526800000000     0          
H1632    H      0.121130000000     0.772320000000     0.549690000000     0          
C1633    C      0.118000000000     0.791500000000     0.501500000000     0          
H1634    H      0.116700000000     0.814370000000     0.507760000000     0          
C1635    C      0.110300000000     0.801600000000     0.406300000000     0          
C1636    C      0.110000000000     0.828000000000     0.380200000000     0          
C1637    C      0.140600000000     0.848000000000     0.374300000000     0          
C1638    C      0.171300000000     0.841300000000     0.392000000000     0          
C1639    C      0.081500000000     0.834700000000     0.358700000000     0          
C1640    C      0.048900000000     0.815800000000     0.365500000000     0          
H1641    H      0.047940000000     0.799780000000     0.383020000000     0          
C1642    C      0.021100000000     0.821800000000     0.346600000000     0          
H1643    H      0.001470000000     0.808960000000     0.350240000000     0          
O1644    O      0.623990000000     0.215620000000     0.575350000000     0          
C1645    C      0.620130000000     0.266070000000     0.526800000000     0          
H1646    H      0.621130000000     0.272320000000     0.549690000000     0          
C1647    C      0.618000000000     0.291500000000     0.501500000000     0          
H1648    H      0.616700000000     0.314370000000     0.507760000000     0          
O1649    O      0.623990000000     0.715620000000     0.075350000000     0          
C1650    C      0.620130000000     0.766070000000     0.026800000000     0          
H1651    H      0.621130000000     0.772320000000     0.049690000000     0          
C1652    C      0.618000000000     0.791500000000     0.001500000000     0          
H1653    H      0.616700000000     0.814370000000     0.007760000000     0          
O1654    O      0.626010000000     0.715620000000     0.174650000000     0          
C1655    C      0.629870000000     0.766070000000     0.223200000000     0          
H1656    H      0.628870000000     0.772320000000     0.200310000000     0          
C1657    C      0.632000000000     0.791500000000     0.248500000000     0          
H1658    H      0.633300000000     0.814370000000     0.242240000000     0          
O1659    O      0.626010000000     0.215620000000     0.674650000000     0          
C1660    C      0.629870000000     0.266070000000     0.723200000000     0          
H1661    H      0.628870000000     0.272320000000     0.700310000000     0          
C1662    C      0.632000000000     0.291500000000     0.748500000000     0          
H1663    H      0.633300000000     0.314370000000     0.742240000000     0          
O1664    O      0.126010000000     0.715620000000     0.674650000000     0          
C1665    C      0.129870000000     0.766070000000     0.723200000000     0          
H1666    H      0.128870000000     0.772320000000     0.700310000000     0          
C1667    C      0.132000000000     0.791500000000     0.748500000000     0          
H1668    H      0.133300000000     0.814370000000     0.742240000000     0          
O1669    O      0.126010000000     0.215620000000     0.174650000000     0          
C1670    C      0.129870000000     0.266070000000     0.223200000000     0          
H1671    H      0.128870000000     0.272320000000     0.200310000000     0          
C1672    C      0.132000000000     0.291500000000     0.248500000000     0          
H1673    H      0.133300000000     0.314370000000     0.242240000000     0          
O1674    O      0.034380000000     0.674650000000     0.623990000000     0          
C1675    C      0.983930000000     0.723200000000     0.620130000000     0          
H1676    H      0.977680000000     0.700310000000     0.621130000000     0          
C1677    C      0.958500000000     0.748500000000     0.618000000000     0          
H1678    H      0.935630000000     0.742240000000     0.616700000000     0          
C1679    C      0.948400000000     0.843700000000     0.610300000000     0          
C1680    C      0.922000000000     0.869800000000     0.610000000000     0          
C1681    C      0.902000000000     0.875700000000     0.640600000000     0          
C1682    C      0.908700000000     0.858000000000     0.671300000000     0          
C1683    C      0.915300000000     0.891300000000     0.581500000000     0          
C1684    C      0.934200000000     0.884500000000     0.548900000000     0          
H1685    H      0.950220000000     0.866980000000     0.547940000000     0          
C1686    C      0.928200000000     0.903400000000     0.521100000000     0          
H1687    H      0.941040000000     0.899760000000     0.501470000000     0          
O1688    O      0.034380000000     0.174650000000     0.123990000000     0          
C1689    C      0.983930000000     0.223200000000     0.120130000000     0          
H1690    H      0.977680000000     0.200310000000     0.121130000000     0          
C1691    C      0.958500000000     0.248500000000     0.118000000000     0          
H1692    H      0.935630000000     0.242240000000     0.116700000000     0          
O1693    O      0.534380000000     0.674650000000     0.123990000000     0          
C1694    C      0.483930000000     0.723200000000     0.120130000000     0          
H1695    H      0.477680000000     0.700310000000     0.121130000000     0          
C1696    C      0.458500000000     0.748500000000     0.118000000000     0          
H1697    H      0.435630000000     0.742240000000     0.116700000000     0          
C1698    C      0.448400000000     0.843700000000     0.110300000000     0          
C1699    C      0.422000000000     0.869800000000     0.110000000000     0          
C1700    C      0.402000000000     0.875700000000     0.140600000000     0          
C1701    C      0.408700000000     0.858000000000     0.171300000000     0          
C1702    C      0.415300000000     0.891300000000     0.081500000000     0          
C1703    C      0.434200000000     0.884500000000     0.048900000000     0          
H1704    H      0.450220000000     0.866980000000     0.047940000000     0          
C1705    C      0.428200000000     0.903400000000     0.021100000000     0          
H1706    H      0.441040000000     0.899760000000     0.001470000000     0          
O1707    O      0.534380000000     0.174650000000     0.623990000000     0          
C1708    C      0.483930000000     0.223200000000     0.620130000000     0          
H1709    H      0.477680000000     0.200310000000     0.621130000000     0          
C1710    C      0.458500000000     0.248500000000     0.618000000000     0          
H1711    H      0.435630000000     0.242240000000     0.616700000000     0          
C1712    C      0.448400000000     0.343700000000     0.610300000000     0          
C1713    C      0.422000000000     0.369800000000     0.610000000000     0          
C1714    C      0.402000000000     0.375700000000     0.640600000000     0          
C1715    C      0.408700000000     0.358000000000     0.671300000000     0          
C1716    C      0.415300000000     0.391300000000     0.581500000000     0          
C1717    C      0.434200000000     0.384500000000     0.548900000000     0          
H1718    H      0.450220000000     0.366980000000     0.547940000000     0          
C1719    C      0.428200000000     0.403400000000     0.521100000000     0          
H1720    H      0.441040000000     0.399760000000     0.501470000000     0          
O1721    O      0.534380000000     0.575350000000     0.126010000000     0          
C1722    C      0.483930000000     0.526800000000     0.129870000000     0          
H1723    H      0.477680000000     0.549690000000     0.128870000000     0          
C1724    C      0.458500000000     0.501500000000     0.132000000000     0          
H1725    H      0.435630000000     0.507760000000     0.133300000000     0          
C1726    C      0.448400000000     0.406300000000     0.139700000000     0          
C1727    C      0.422000000000     0.380200000000     0.140000000000     0          
C1728    C      0.402000000000     0.374300000000     0.109400000000     0          
C1729    C      0.408700000000     0.392000000000     0.078700000000     0          
C1730    C      0.415300000000     0.358700000000     0.168500000000     0          
C1731    C      0.434200000000     0.365500000000     0.201100000000     0          
H1732    H      0.450220000000     0.383020000000     0.202060000000     0          
C1733    C      0.428200000000     0.346600000000     0.228900000000     0          
H1734    H      0.441040000000     0.350240000000     0.248530000000     0          
O1735    O      0.534380000000     0.075350000000     0.626010000000     0          
C1736    C      0.483930000000     0.026800000000     0.629870000000     0          
H1737    H      0.477680000000     0.049690000000     0.628870000000     0          
C1738    C      0.458500000000     0.001500000000     0.632000000000     0          
H1739    H      0.435630000000     0.007760000000     0.633300000000     0          
O1740    O      0.034380000000     0.575350000000     0.626010000000     0          
C1741    C      0.983930000000     0.526800000000     0.629870000000     0          
H1742    H      0.977680000000     0.549690000000     0.628870000000     0          
C1743    C      0.958500000000     0.501500000000     0.632000000000     0          
H1744    H      0.935630000000     0.507760000000     0.633300000000     0          
C1745    C      0.948400000000     0.406300000000     0.639700000000     0          
C1746    C      0.922000000000     0.380200000000     0.640000000000     0          
C1747    C      0.902000000000     0.374300000000     0.609400000000     0          
C1748    C      0.908700000000     0.392000000000     0.578700000000     0          
C1749    C      0.915300000000     0.358700000000     0.668500000000     0          
C1750    C      0.934200000000     0.365500000000     0.701100000000     0          
H1751    H      0.950220000000     0.383020000000     0.702060000000     0          
C1752    C      0.928200000000     0.346600000000     0.728900000000     0          
H1753    H      0.941040000000     0.350240000000     0.748530000000     0          
O1754    O      0.034380000000     0.075350000000     0.126010000000     0          
C1755    C      0.983930000000     0.026800000000     0.129870000000     0          
H1756    H      0.977680000000     0.049690000000     0.128870000000     0          
C1757    C      0.958500000000     0.001500000000     0.132000000000     0          
H1758    H      0.935630000000     0.007760000000     0.133300000000     0          
C1759    C      0.948400000000     0.906300000000     0.139700000000     0          
C1760    C      0.922000000000     0.880200000000     0.140000000000     0          
C1761    C      0.902000000000     0.874300000000     0.109400000000     0          
C1762    C      0.908700000000     0.892000000000     0.078700000000     0          
C1763    C      0.915300000000     0.858700000000     0.168500000000     0          
C1764    C      0.934200000000     0.865500000000     0.201100000000     0          
H1765    H      0.950220000000     0.883020000000     0.202060000000     0          
C1766    C      0.928200000000     0.846600000000     0.228900000000     0          
H1767    H      0.941040000000     0.850240000000     0.248530000000     0          
O1768    O      0.715620000000     0.174650000000     0.626010000000     0          
C1769    C      0.766070000000     0.223200000000     0.629870000000     0          
H1770    H      0.772320000000     0.200310000000     0.628870000000     0          
C1771    C      0.791500000000     0.248500000000     0.632000000000     0          
H1772    H      0.814370000000     0.242240000000     0.633300000000     0          
O1773    O      0.715620000000     0.674650000000     0.126010000000     0          
C1774    C      0.766070000000     0.723200000000     0.129870000000     0          
H1775    H      0.772320000000     0.700310000000     0.128870000000     0          
C1776    C      0.791500000000     0.748500000000     0.132000000000     0          
H1777    H      0.814370000000     0.742240000000     0.133300000000     0          
O1778    O      0.215620000000     0.174650000000     0.126010000000     0          
C1779    C      0.266070000000     0.223200000000     0.129870000000     0          
H1780    H      0.272320000000     0.200310000000     0.128870000000     0          
C1781    C      0.291500000000     0.248500000000     0.132000000000     0          
H1782    H      0.314370000000     0.242240000000     0.133300000000     0          
O1783    O      0.215620000000     0.674650000000     0.626010000000     0          
C1784    C      0.266070000000     0.723200000000     0.629870000000     0          
H1785    H      0.272320000000     0.700310000000     0.628870000000     0          
C1786    C      0.291500000000     0.748500000000     0.632000000000     0          
H1787    H      0.314370000000     0.742240000000     0.633300000000     0          
C1788    C      0.301600000000     0.843700000000     0.639700000000     0          
C1789    C      0.328000000000     0.869800000000     0.640000000000     0          
C1790    C      0.348000000000     0.875700000000     0.609400000000     0          
C1791    C      0.341300000000     0.858000000000     0.578700000000     0          
C1792    C      0.334700000000     0.891300000000     0.668500000000     0          
C1793    C      0.315800000000     0.884500000000     0.701100000000     0          
H1794    H      0.299780000000     0.866980000000     0.702060000000     0          
C1795    C      0.321800000000     0.903400000000     0.728900000000     0          
H1796    H      0.308960000000     0.899760000000     0.748530000000     0          
O1797    O      0.215620000000     0.075350000000     0.123990000000     0          
C1798    C      0.266070000000     0.026800000000     0.120130000000     0          
H1799    H      0.272320000000     0.049690000000     0.121130000000     0          
C1800    C      0.291500000000     0.001500000000     0.118000000000     0          
H1801    H      0.314370000000     0.007760000000     0.116700000000     0          
O1802    O      0.215620000000     0.575350000000     0.623990000000     0          
C1803    C      0.266070000000     0.526800000000     0.620130000000     0          
H1804    H      0.272320000000     0.549690000000     0.621130000000     0          
C1805    C      0.291500000000     0.501500000000     0.618000000000     0          
H1806    H      0.314370000000     0.507760000000     0.616700000000     0          
O1807    O      0.715620000000     0.075350000000     0.623990000000     0          
C1808    C      0.766070000000     0.026800000000     0.620130000000     0          
H1809    H      0.772320000000     0.049690000000     0.621130000000     0          
C1810    C      0.791500000000     0.001500000000     0.618000000000     0          
H1811    H      0.814370000000     0.007760000000     0.616700000000     0          
O1812    O      0.715620000000     0.575350000000     0.123990000000     0          
C1813    C      0.766070000000     0.526800000000     0.120130000000     0          
H1814    H      0.772320000000     0.549690000000     0.121130000000     0          
C1815    C      0.791500000000     0.501500000000     0.118000000000     0          
H1816    H      0.814370000000     0.507760000000     0.116700000000     0          
C1817    C      0.801600000000     0.406300000000     0.110300000000     0          
C1818    C      0.828000000000     0.380200000000     0.110000000000     0          
C1819    C      0.848000000000     0.374300000000     0.140600000000     0          
C1820    C      0.841300000000     0.392000000000     0.171300000000     0          
C1821    C      0.834700000000     0.358700000000     0.081500000000     0          
C1822    C      0.815800000000     0.365500000000     0.048900000000     0          
H1823    H      0.799780000000     0.383020000000     0.047940000000     0          
C1824    C      0.821800000000     0.346600000000     0.021100000000     0          
H1825    H      0.808960000000     0.350240000000     0.001470000000     0          
Zr1826   Zr     0.125000000000     0.125000000000     0.188050000000     0          
Zr1827   Zr     0.625000000000     0.125000000000     0.688050000000     0          
Zr1828   Zr     0.625000000000     0.625000000000     0.188050000000     0          
Zr1829   Zr     0.125000000000     0.625000000000     0.561950000000     0          
Zr1830   Zr     0.125000000000     0.125000000000     0.061950000000     0          
Zr1831   Zr     0.625000000000     0.625000000000     0.061950000000     0          
Zr1832   Zr     0.188050000000     0.125000000000     0.125000000000     0          
Zr1833   Zr     0.188050000000     0.625000000000     0.625000000000     0          
Zr1834   Zr     0.688050000000     0.625000000000     0.125000000000     0          
Zr1835   Zr     0.561950000000     0.125000000000     0.625000000000     0          
Zr1836   Zr     0.061950000000     0.625000000000     0.625000000000     0          
Zr1837   Zr     0.061950000000     0.125000000000     0.125000000000     0          
Zr1838   Zr     0.125000000000     0.188050000000     0.125000000000     0          
Zr1839   Zr     0.125000000000     0.688050000000     0.625000000000     0          
Zr1840   Zr     0.625000000000     0.561950000000     0.125000000000     0          
Zr1841   Zr     0.625000000000     0.061950000000     0.625000000000     0          
Zr1842   Zr     0.875000000000     0.375000000000     0.311950000000     0          
Zr1843   Zr     0.875000000000     0.875000000000     0.811950000000     0          
Zr1844   Zr     0.375000000000     0.375000000000     0.938050000000     0          
Zr1845   Zr     0.375000000000     0.875000000000     0.438050000000     0          
Zr1846   Zr     0.875000000000     0.438050000000     0.375000000000     0          
Zr1847   Zr     0.875000000000     0.938050000000     0.875000000000     0          
Zr1848   Zr     0.375000000000     0.938050000000     0.375000000000     0          
Zr1849   Zr     0.875000000000     0.811950000000     0.875000000000     0          
Zr1850   Zr     0.375000000000     0.311950000000     0.875000000000     0          
Zr1851   Zr     0.375000000000     0.811950000000     0.375000000000     0          
Zr1852   Zr     0.938050000000     0.375000000000     0.375000000000     0          
Zr1853   Zr     0.938050000000     0.875000000000     0.875000000000     0          
Zr1854   Zr     0.438050000000     0.375000000000     0.875000000000     0          
Zr1855   Zr     0.311950000000     0.875000000000     0.375000000000     0          
Zr1856   Zr     0.811950000000     0.875000000000     0.875000000000     0          
Zr1857   Zr     0.811950000000     0.375000000000     0.375000000000     0          
Zr1858   Zr     0.375000000000     0.875000000000     0.311950000000     0          
Zr1859   Zr     0.375000000000     0.375000000000     0.811950000000     0          
Zr1860   Zr     0.875000000000     0.375000000000     0.438050000000     0          
Zr1861   Zr     0.875000000000     0.875000000000     0.938050000000     0          
Zr1862   Zr     0.311950000000     0.375000000000     0.875000000000     0          
Zr1863   Zr     0.438050000000     0.875000000000     0.375000000000     0          
Zr1864   Zr     0.875000000000     0.311950000000     0.375000000000     0          
Zr1865   Zr     0.375000000000     0.438050000000     0.875000000000     0          
Zr1866   Zr     0.125000000000     0.625000000000     0.688050000000     0          
Zr1867   Zr     0.625000000000     0.125000000000     0.561950000000     0          
Zr1868   Zr     0.125000000000     0.561950000000     0.625000000000     0          
Zr1869   Zr     0.125000000000     0.061950000000     0.125000000000     0          
Zr1870   Zr     0.625000000000     0.688050000000     0.125000000000     0          
Zr1871   Zr     0.625000000000     0.188050000000     0.625000000000     0          
Zr1872   Zr     0.561950000000     0.625000000000     0.125000000000     0          
Zr1873   Zr     0.688050000000     0.125000000000     0.625000000000     0          
O1874    O      0.159730000000     0.090270000000     0.159730000000     0          
O1875    O      0.590270000000     0.159730000000     0.659730000000     0          
O1876    O      0.090270000000     0.590270000000     0.590270000000     0          
O1877    O      0.090270000000     0.090270000000     0.090270000000     0          
O1878    O      0.659730000000     0.659730000000     0.090270000000     0          
O1879    O      0.159730000000     0.159730000000     0.090270000000     0          
O1880    O      0.659730000000     0.590270000000     0.159730000000     0          
O1881    O      0.590270000000     0.090270000000     0.590270000000     0          
O1882    O      0.090270000000     0.659730000000     0.659730000000     0          
O1883    O      0.090270000000     0.159730000000     0.159730000000     0          
O1884    O      0.159730000000     0.659730000000     0.590270000000     0          
O1885    O      0.590270000000     0.590270000000     0.090270000000     0          
O1886    O      0.659730000000     0.090270000000     0.659730000000     0          
O1887    O      0.840270000000     0.409730000000     0.340270000000     0          
O1888    O      0.909730000000     0.840270000000     0.840270000000     0          
O1889    O      0.340270000000     0.340270000000     0.909730000000     0          
O1890    O      0.409730000000     0.909730000000     0.409730000000     0          
O1891    O      0.909730000000     0.409730000000     0.409730000000     0          
O1892    O      0.909730000000     0.909730000000     0.909730000000     0          
O1893    O      0.340270000000     0.909730000000     0.340270000000     0          
O1894    O      0.840270000000     0.840270000000     0.909730000000     0          
O1895    O      0.409730000000     0.340270000000     0.840270000000     0          
O1896    O      0.909730000000     0.340270000000     0.340270000000     0          
O1897    O      0.409730000000     0.409730000000     0.909730000000     0          
O1898    O      0.340270000000     0.840270000000     0.409730000000     0          
O1899    O      0.840270000000     0.909730000000     0.840270000000     0          
O1900    O      0.409730000000     0.840270000000     0.340270000000     0          
O1901    O      0.340270000000     0.409730000000     0.840270000000     0          
O1902    O      0.840270000000     0.340270000000     0.409730000000     0          
O1903    O      0.159730000000     0.590270000000     0.659730000000     0          
O1904    O      0.590270000000     0.659730000000     0.159730000000     0          
O1905    O      0.659730000000     0.159730000000     0.590270000000     0          
O1906    O      0.097510000000     0.097510000000     0.152490000000     0          
O1907    O      0.652490000000     0.152490000000     0.652490000000     0          
O1908    O      0.152490000000     0.597510000000     0.597510000000     0          
O1909    O      0.597510000000     0.652490000000     0.097510000000     0          
O1910    O      0.097510000000     0.152490000000     0.097510000000     0          
O1911    O      0.152490000000     0.097510000000     0.097510000000     0          
O1912    O      0.652490000000     0.652490000000     0.152490000000     0          
O1913    O      0.597510000000     0.152490000000     0.597510000000     0          
O1914    O      0.097510000000     0.597510000000     0.652490000000     0          
O1915    O      0.152490000000     0.652490000000     0.652490000000     0          
O1916    O      0.152490000000     0.152490000000     0.152490000000     0          
O1917    O      0.597510000000     0.597510000000     0.152490000000     0          
O1918    O      0.652490000000     0.097510000000     0.597510000000     0          
O1919    O      0.847510000000     0.347510000000     0.347510000000     0          
O1920    O      0.847510000000     0.847510000000     0.847510000000     0          
O1921    O      0.902490000000     0.902490000000     0.847510000000     0          
O1922    O      0.347510000000     0.402490000000     0.902490000000     0          
O1923    O      0.402490000000     0.847510000000     0.402490000000     0          
O1924    O      0.847510000000     0.402490000000     0.402490000000     0          
O1925    O      0.402490000000     0.902490000000     0.347510000000     0          
O1926    O      0.902490000000     0.847510000000     0.902490000000     0          
O1927    O      0.347510000000     0.347510000000     0.847510000000     0          
O1928    O      0.902490000000     0.347510000000     0.402490000000     0          
O1929    O      0.402490000000     0.402490000000     0.847510000000     0          
O1930    O      0.347510000000     0.847510000000     0.347510000000     0          
O1931    O      0.847510000000     0.902490000000     0.902490000000     0          
O1932    O      0.402490000000     0.347510000000     0.902490000000     0          
O1933    O      0.902490000000     0.402490000000     0.347510000000     0          
O1934    O      0.347510000000     0.902490000000     0.402490000000     0          
O1935    O      0.652490000000     0.597510000000     0.097510000000     0          
O1936    O      0.597510000000     0.097510000000     0.652490000000     0          
O1937    O      0.097510000000     0.652490000000     0.597510000000     0          
C1938    C      0.123750000000     0.044540000000     0.205460000000     0          
C1939    C      0.120800000000     0.018010000000     0.231990000000     0          
C1940    C      0.117800000000     0.967300000000     0.282700000000     0          
C1941    C      0.117500000000     0.940600000000     0.309400000000     0          
C1942    C      0.201600000000     0.887830000000     0.362170000000     0          
C1943    C      0.123750000000     0.544540000000     0.705460000000     0          
C1944    C      0.120800000000     0.518010000000     0.731990000000     0          
C1945    C      0.117800000000     0.467300000000     0.782700000000     0          
C1946    C      0.117500000000     0.440600000000     0.809400000000     0          
C1947    C      0.201600000000     0.387830000000     0.862170000000     0          
C1948    C      0.626250000000     0.205460000000     0.705460000000     0          
C1949    C      0.629200000000     0.231990000000     0.731990000000     0          
C1950    C      0.632200000000     0.282700000000     0.782700000000     0          
C1951    C      0.632500000000     0.309400000000     0.809400000000     0          
C1952    C      0.548400000000     0.362170000000     0.862170000000     0          
C1953    C      0.126250000000     0.205460000000     0.205460000000     0          
C1954    C      0.129200000000     0.231990000000     0.231990000000     0          
C1955    C      0.132200000000     0.282700000000     0.282700000000     0          
C1956    C      0.132500000000     0.309400000000     0.309400000000     0          
C1957    C      0.048400000000     0.362170000000     0.362170000000     0          
C1958    C      0.126250000000     0.544540000000     0.544540000000     0          
C1959    C      0.129200000000     0.518010000000     0.518010000000     0          
C1960    C      0.132200000000     0.467300000000     0.467300000000     0          
C1961    C      0.132500000000     0.440600000000     0.440600000000     0          
C1962    C      0.048400000000     0.387830000000     0.387830000000     0          
C1963    C      0.126250000000     0.044540000000     0.044540000000     0          
C1964    C      0.129200000000     0.018010000000     0.018010000000     0          
C1965    C      0.132200000000     0.967300000000     0.967300000000     0          
C1966    C      0.132500000000     0.940600000000     0.940600000000     0          
C1967    C      0.048400000000     0.887830000000     0.887830000000     0          
C1968    C      0.626250000000     0.544540000000     0.044540000000     0          
C1969    C      0.629200000000     0.518010000000     0.018010000000     0          
C1970    C      0.632200000000     0.467300000000     0.967300000000     0          
C1971    C      0.632500000000     0.440600000000     0.940600000000     0          
C1972    C      0.548400000000     0.387830000000     0.887830000000     0          
C1973    C      0.626250000000     0.044540000000     0.544540000000     0          
C1974    C      0.629200000000     0.018010000000     0.518010000000     0          
C1975    C      0.632200000000     0.967300000000     0.467300000000     0          
C1976    C      0.632500000000     0.940600000000     0.440600000000     0          
C1977    C      0.548400000000     0.887830000000     0.387830000000     0          
C1978    C      0.623750000000     0.705460000000     0.044540000000     0          
C1979    C      0.620800000000     0.731990000000     0.018010000000     0          
C1980    C      0.617800000000     0.782700000000     0.967300000000     0          
C1981    C      0.617500000000     0.809400000000     0.940600000000     0          
C1982    C      0.701600000000     0.862170000000     0.887830000000     0          
C1983    C      0.623750000000     0.205460000000     0.544540000000     0          
C1984    C      0.620800000000     0.231990000000     0.518010000000     0          
C1985    C      0.617800000000     0.282700000000     0.467300000000     0          
C1986    C      0.617500000000     0.309400000000     0.440600000000     0          
C1987    C      0.701600000000     0.362170000000     0.387830000000     0          
C1988    C      0.205460000000     0.123750000000     0.044540000000     0          
C1989    C      0.231990000000     0.120800000000     0.018010000000     0          
C1990    C      0.282700000000     0.117800000000     0.967300000000     0          
C1991    C      0.309400000000     0.117500000000     0.940600000000     0          
C1992    C      0.362170000000     0.201600000000     0.887830000000     0          
C1993    C      0.205460000000     0.623750000000     0.544540000000     0          
C1994    C      0.231990000000     0.620800000000     0.518010000000     0          
C1995    C      0.282700000000     0.617800000000     0.467300000000     0          
C1996    C      0.309400000000     0.617500000000     0.440600000000     0          
C1997    C      0.362170000000     0.701600000000     0.387830000000     0          
C1998    C      0.705460000000     0.626250000000     0.205460000000     0          
C1999    C      0.731990000000     0.629200000000     0.231990000000     0          
C2000    C      0.782700000000     0.632200000000     0.282700000000     0          
C2001    C      0.809400000000     0.632500000000     0.309400000000     0          
C2002    C      0.862170000000     0.548400000000     0.362170000000     0          
C2003    C      0.705460000000     0.126250000000     0.705460000000     0          
C2004    C      0.731990000000     0.129200000000     0.731990000000     0          
C2005    C      0.782700000000     0.132200000000     0.782700000000     0          
C2006    C      0.809400000000     0.132500000000     0.809400000000     0          
C2007    C      0.862170000000     0.048400000000     0.862170000000     0          
C2008    C      0.544540000000     0.126250000000     0.544540000000     0          
C2009    C      0.518010000000     0.129200000000     0.518010000000     0          
C2010    C      0.467300000000     0.132200000000     0.467300000000     0          
C2011    C      0.440600000000     0.132500000000     0.440600000000     0          
C2012    C      0.387830000000     0.048400000000     0.387830000000     0          
C2013    C      0.544540000000     0.626250000000     0.044540000000     0          
C2014    C      0.518010000000     0.629200000000     0.018010000000     0          
C2015    C      0.467300000000     0.632200000000     0.967300000000     0          
C2016    C      0.440600000000     0.632500000000     0.940600000000     0          
C2017    C      0.387830000000     0.548400000000     0.887830000000     0          
C2018    C      0.044540000000     0.126250000000     0.044540000000     0          
C2019    C      0.018010000000     0.129200000000     0.018010000000     0          
C2020    C      0.967300000000     0.132200000000     0.967300000000     0          
C2021    C      0.940600000000     0.132500000000     0.940600000000     0          
C2022    C      0.887830000000     0.048400000000     0.887830000000     0          
C2023    C      0.044540000000     0.626250000000     0.544540000000     0          
C2024    C      0.018010000000     0.629200000000     0.518010000000     0          
C2025    C      0.967300000000     0.632200000000     0.467300000000     0          
C2026    C      0.940600000000     0.632500000000     0.440600000000     0          
C2027    C      0.887830000000     0.548400000000     0.387830000000     0          
C2028    C      0.044540000000     0.623750000000     0.705460000000     0          
C2029    C      0.018010000000     0.620800000000     0.731990000000     0          
C2030    C      0.967300000000     0.617800000000     0.782700000000     0          
C2031    C      0.940600000000     0.617500000000     0.809400000000     0          
C2032    C      0.887830000000     0.701600000000     0.862170000000     0          
C2033    C      0.544540000000     0.623750000000     0.205460000000     0          
C2034    C      0.518010000000     0.620800000000     0.231990000000     0          
C2035    C      0.467300000000     0.617800000000     0.282700000000     0          
C2036    C      0.440600000000     0.617500000000     0.309400000000     0          
C2037    C      0.387830000000     0.701600000000     0.362170000000     0          
C2038    C      0.044540000000     0.205460000000     0.123750000000     0          
C2039    C      0.018010000000     0.231990000000     0.120800000000     0          
C2040    C      0.967300000000     0.282700000000     0.117800000000     0          
C2041    C      0.940600000000     0.309400000000     0.117500000000     0          
C2042    C      0.887830000000     0.362170000000     0.201600000000     0          
C2043    C      0.544540000000     0.205460000000     0.623750000000     0          
C2044    C      0.518010000000     0.231990000000     0.620800000000     0          
C2045    C      0.467300000000     0.282700000000     0.617800000000     0          
C2046    C      0.440600000000     0.309400000000     0.617500000000     0          
C2047    C      0.387830000000     0.362170000000     0.701600000000     0          
C2048    C      0.205460000000     0.705460000000     0.626250000000     0          
C2049    C      0.231990000000     0.731990000000     0.629200000000     0          
C2050    C      0.282700000000     0.782700000000     0.632200000000     0          
C2051    C      0.309400000000     0.809400000000     0.632500000000     0          
C2052    C      0.362170000000     0.862170000000     0.548400000000     0          
C2053    C      0.205460000000     0.205460000000     0.126250000000     0          
C2054    C      0.231990000000     0.231990000000     0.129200000000     0          
C2055    C      0.282700000000     0.282700000000     0.132200000000     0          
C2056    C      0.309400000000     0.309400000000     0.132500000000     0          
C2057    C      0.362170000000     0.362170000000     0.048400000000     0          
C2058    C      0.544540000000     0.544540000000     0.126250000000     0          
C2059    C      0.518010000000     0.518010000000     0.129200000000     0          
C2060    C      0.467300000000     0.467300000000     0.132200000000     0          
C2061    C      0.440600000000     0.440600000000     0.132500000000     0          
C2062    C      0.387830000000     0.387830000000     0.048400000000     0          
C2063    C      0.544540000000     0.044540000000     0.626250000000     0          
C2064    C      0.518010000000     0.018010000000     0.629200000000     0          
C2065    C      0.467300000000     0.967300000000     0.632200000000     0          
C2066    C      0.440600000000     0.940600000000     0.632500000000     0          
C2067    C      0.387830000000     0.887830000000     0.548400000000     0          
C2068    C      0.044540000000     0.544540000000     0.626250000000     0          
C2069    C      0.018010000000     0.518010000000     0.629200000000     0          
C2070    C      0.967300000000     0.467300000000     0.632200000000     0          
C2071    C      0.940600000000     0.440600000000     0.632500000000     0          
C2072    C      0.887830000000     0.387830000000     0.548400000000     0          
C2073    C      0.044540000000     0.044540000000     0.126250000000     0          
C2074    C      0.018010000000     0.018010000000     0.129200000000     0          
C2075    C      0.967300000000     0.967300000000     0.132200000000     0          
C2076    C      0.940600000000     0.940600000000     0.132500000000     0          
C2077    C      0.887830000000     0.887830000000     0.048400000000     0          
C2078    C      0.705460000000     0.044540000000     0.623750000000     0          
C2079    C      0.731990000000     0.018010000000     0.620800000000     0          
C2080    C      0.782700000000     0.967300000000     0.617800000000     0          
C2081    C      0.809400000000     0.940600000000     0.617500000000     0          
C2082    C      0.862170000000     0.887830000000     0.701600000000     0          
C2083    C      0.705460000000     0.544540000000     0.123750000000     0          
C2084    C      0.731990000000     0.518010000000     0.120800000000     0          
C2085    C      0.782700000000     0.467300000000     0.117800000000     0          
C2086    C      0.809400000000     0.440600000000     0.117500000000     0          
C2087    C      0.862170000000     0.387830000000     0.201600000000     0          
C2088    C      0.794540000000     0.373750000000     0.294540000000     0          
C2089    C      0.768010000000     0.370800000000     0.268010000000     0          
C2090    C      0.717300000000     0.367800000000     0.217300000000     0          
C2091    C      0.690600000000     0.367500000000     0.190600000000     0          
C2092    C      0.637830000000     0.451600000000     0.137830000000     0          
C2093    C      0.794540000000     0.873750000000     0.794540000000     0          
C2094    C      0.768010000000     0.870800000000     0.768010000000     0          
C2095    C      0.717300000000     0.867800000000     0.717300000000     0          
C2096    C      0.690600000000     0.867500000000     0.690600000000     0          
C2097    C      0.637830000000     0.951600000000     0.637830000000     0          
C2098    C      0.955460000000     0.876250000000     0.794540000000     0          
C2099    C      0.981990000000     0.879200000000     0.768010000000     0          
C2100    C      0.032700000000     0.882200000000     0.717300000000     0          
C2101    C      0.059400000000     0.882500000000     0.690600000000     0          
C2102    C      0.112170000000     0.798400000000     0.637830000000     0          
C2103    C      0.455460000000     0.876250000000     0.294540000000     0          
C2104    C      0.481990000000     0.879200000000     0.268010000000     0          
C2105    C      0.532700000000     0.882200000000     0.217300000000     0          
C2106    C      0.559400000000     0.882500000000     0.190600000000     0          
C2107    C      0.612170000000     0.798400000000     0.137830000000     0          
C2108    C      0.294540000000     0.376250000000     0.955460000000     0          
C2109    C      0.268010000000     0.379200000000     0.981990000000     0          
C2110    C      0.217300000000     0.382200000000     0.032700000000     0          
C2111    C      0.190600000000     0.382500000000     0.059400000000     0          
C2112    C      0.137830000000     0.298400000000     0.112170000000     0          
C2113    C      0.294540000000     0.876250000000     0.455460000000     0          
C2114    C      0.268010000000     0.879200000000     0.481990000000     0          
C2115    C      0.217300000000     0.882200000000     0.532700000000     0          
C2116    C      0.190600000000     0.882500000000     0.559400000000     0          
C2117    C      0.137830000000     0.798400000000     0.612170000000     0          
C2118    C      0.455460000000     0.873750000000     0.455460000000     0          
C2119    C      0.481990000000     0.870800000000     0.481990000000     0          
C2120    C      0.532700000000     0.867800000000     0.532700000000     0          
C2121    C      0.559400000000     0.867500000000     0.559400000000     0          
C2122    C      0.612170000000     0.951600000000     0.612170000000     0          
C2123    C      0.455460000000     0.373750000000     0.955460000000     0          
C2124    C      0.481990000000     0.370800000000     0.981990000000     0          
C2125    C      0.532700000000     0.367800000000     0.032700000000     0          
C2126    C      0.559400000000     0.367500000000     0.059400000000     0          
C2127    C      0.612170000000     0.451600000000     0.112170000000     0          
C2128    C      0.955460000000     0.873750000000     0.955460000000     0          
C2129    C      0.981990000000     0.870800000000     0.981990000000     0          
C2130    C      0.032700000000     0.867800000000     0.032700000000     0          
C2131    C      0.059400000000     0.867500000000     0.059400000000     0          
C2132    C      0.112170000000     0.951600000000     0.112170000000     0          
C2133    C      0.955460000000     0.373750000000     0.455460000000     0          
C2134    C      0.981990000000     0.370800000000     0.481990000000     0          
C2135    C      0.032700000000     0.367800000000     0.532700000000     0          
C2136    C      0.059400000000     0.367500000000     0.559400000000     0          
C2137    C      0.112170000000     0.451600000000     0.612170000000     0          
C2138    C      0.873750000000     0.455460000000     0.455460000000     0          
C2139    C      0.870800000000     0.481990000000     0.481990000000     0          
C2140    C      0.867800000000     0.532700000000     0.532700000000     0          
C2141    C      0.867500000000     0.559400000000     0.559400000000     0          
C2142    C      0.951600000000     0.612170000000     0.612170000000     0          
C2143    C      0.873750000000     0.955460000000     0.955460000000     0          
C2144    C      0.870800000000     0.981990000000     0.981990000000     0          
C2145    C      0.867800000000     0.032700000000     0.032700000000     0          
C2146    C      0.867500000000     0.059400000000     0.059400000000     0          
C2147    C      0.951600000000     0.112170000000     0.112170000000     0          
C2148    C      0.373750000000     0.455460000000     0.955460000000     0          
C2149    C      0.370800000000     0.481990000000     0.981990000000     0          
C2150    C      0.367800000000     0.532700000000     0.032700000000     0          
C2151    C      0.367500000000     0.559400000000     0.059400000000     0          
C2152    C      0.451600000000     0.612170000000     0.112170000000     0          
C2153    C      0.373750000000     0.955460000000     0.455460000000     0          
C2154    C      0.370800000000     0.981990000000     0.481990000000     0          
C2155    C      0.367800000000     0.032700000000     0.532700000000     0          
C2156    C      0.367500000000     0.059400000000     0.559400000000     0          
C2157    C      0.451600000000     0.112170000000     0.612170000000     0          
C2158    C      0.376250000000     0.955460000000     0.294540000000     0          
C2159    C      0.379200000000     0.981990000000     0.268010000000     0          
C2160    C      0.382200000000     0.032700000000     0.217300000000     0          
C2161    C      0.382500000000     0.059400000000     0.190600000000     0          
C2162    C      0.298400000000     0.112170000000     0.137830000000     0          
C2163    C      0.376250000000     0.455460000000     0.794540000000     0          
C2164    C      0.379200000000     0.481990000000     0.768010000000     0          
C2165    C      0.382200000000     0.532700000000     0.717300000000     0          
C2166    C      0.382500000000     0.559400000000     0.690600000000     0          
C2167    C      0.298400000000     0.612170000000     0.637830000000     0          
C2168    C      0.876250000000     0.794540000000     0.955460000000     0          
C2169    C      0.879200000000     0.768010000000     0.981990000000     0          
C2170    C      0.882200000000     0.717300000000     0.032700000000     0          
C2171    C      0.882500000000     0.690600000000     0.059400000000     0          
C2172    C      0.798400000000     0.637830000000     0.112170000000     0          
C2173    C      0.876250000000     0.294540000000     0.455460000000     0          
C2174    C      0.879200000000     0.268010000000     0.481990000000     0          
C2175    C      0.882200000000     0.217300000000     0.532700000000     0          
C2176    C      0.882500000000     0.190600000000     0.559400000000     0          
C2177    C      0.798400000000     0.137830000000     0.612170000000     0          
C2178    C      0.373750000000     0.294540000000     0.794540000000     0          
C2179    C      0.370800000000     0.268010000000     0.768010000000     0          
C2180    C      0.367800000000     0.217300000000     0.717300000000     0          
C2181    C      0.367500000000     0.190600000000     0.690600000000     0          
C2182    C      0.451600000000     0.137830000000     0.637830000000     0          
C2183    C      0.873750000000     0.294540000000     0.294540000000     0          
C2184    C      0.870800000000     0.268010000000     0.268010000000     0          
C2185    C      0.867800000000     0.217300000000     0.217300000000     0          
C2186    C      0.867500000000     0.190600000000     0.190600000000     0          
C2187    C      0.951600000000     0.137830000000     0.137830000000     0          
C2188    C      0.955460000000     0.294540000000     0.376250000000     0          
C2189    C      0.981990000000     0.268010000000     0.379200000000     0          
C2190    C      0.032700000000     0.217300000000     0.382200000000     0          
C2191    C      0.059400000000     0.190600000000     0.382500000000     0          
C2192    C      0.112170000000     0.137830000000     0.298400000000     0          
C2193    C      0.455460000000     0.294540000000     0.876250000000     0          
C2194    C      0.481990000000     0.268010000000     0.879200000000     0          
C2195    C      0.532700000000     0.217300000000     0.882200000000     0          
C2196    C      0.559400000000     0.190600000000     0.882500000000     0          
C2197    C      0.612170000000     0.137830000000     0.798400000000     0          
C2198    C      0.455460000000     0.455460000000     0.873750000000     0          
C2199    C      0.481990000000     0.481990000000     0.870800000000     0          
C2200    C      0.532700000000     0.532700000000     0.867800000000     0          
C2201    C      0.559400000000     0.559400000000     0.867500000000     0          
C2202    C      0.612170000000     0.612170000000     0.951600000000     0          
C2203    C      0.455460000000     0.955460000000     0.373750000000     0          
C2204    C      0.481990000000     0.981990000000     0.370800000000     0          
C2205    C      0.532700000000     0.032700000000     0.367800000000     0          
C2206    C      0.559400000000     0.059400000000     0.367500000000     0          
C2207    C      0.612170000000     0.112170000000     0.451600000000     0          
C2208    C      0.955460000000     0.455460000000     0.373750000000     0          
C2209    C      0.981990000000     0.481990000000     0.370800000000     0          
C2210    C      0.032700000000     0.532700000000     0.367800000000     0          
C2211    C      0.059400000000     0.559400000000     0.367500000000     0          
C2212    C      0.112170000000     0.612170000000     0.451600000000     0          
C2213    C      0.955460000000     0.955460000000     0.873750000000     0          
C2214    C      0.981990000000     0.981990000000     0.870800000000     0          
C2215    C      0.032700000000     0.032700000000     0.867800000000     0          
C2216    C      0.059400000000     0.059400000000     0.867500000000     0          
C2217    C      0.112170000000     0.112170000000     0.951600000000     0          
C2218    C      0.294540000000     0.794540000000     0.373750000000     0          
C2219    C      0.268010000000     0.768010000000     0.370800000000     0          
C2220    C      0.217300000000     0.717300000000     0.367800000000     0          
C2221    C      0.190600000000     0.690600000000     0.367500000000     0          
C2222    C      0.137830000000     0.637830000000     0.451600000000     0          
C2223    C      0.294540000000     0.294540000000     0.873750000000     0          
C2224    C      0.268010000000     0.268010000000     0.870800000000     0          
C2225    C      0.217300000000     0.217300000000     0.867800000000     0          
C2226    C      0.190600000000     0.190600000000     0.867500000000     0          
C2227    C      0.137830000000     0.137830000000     0.951600000000     0          
C2228    C      0.794540000000     0.955460000000     0.876250000000     0          
C2229    C      0.768010000000     0.981990000000     0.879200000000     0          
C2230    C      0.717300000000     0.032700000000     0.882200000000     0          
C2231    C      0.690600000000     0.059400000000     0.882500000000     0          
C2232    C      0.637830000000     0.112170000000     0.798400000000     0          
C2233    C      0.794540000000     0.455460000000     0.376250000000     0          
C2234    C      0.768010000000     0.481990000000     0.379200000000     0          
C2235    C      0.717300000000     0.532700000000     0.382200000000     0          
C2236    C      0.690600000000     0.559400000000     0.382500000000     0          
C2237    C      0.637830000000     0.612170000000     0.298400000000     0          
C2238    C      0.876250000000     0.955460000000     0.794540000000     0          
C2239    C      0.879200000000     0.981990000000     0.768010000000     0          
C2240    C      0.882200000000     0.032700000000     0.717300000000     0          
C2241    C      0.882500000000     0.059400000000     0.690600000000     0          
C2242    C      0.798400000000     0.112170000000     0.637830000000     0          
C2243    C      0.876250000000     0.455460000000     0.294540000000     0          
C2244    C      0.879200000000     0.481990000000     0.268010000000     0          
C2245    C      0.882200000000     0.532700000000     0.217300000000     0          
C2246    C      0.882500000000     0.559400000000     0.190600000000     0          
C2247    C      0.798400000000     0.612170000000     0.137830000000     0          
C2248    C      0.373750000000     0.794540000000     0.294540000000     0          
C2249    C      0.370800000000     0.768010000000     0.268010000000     0          
C2250    C      0.367800000000     0.717300000000     0.217300000000     0          
C2251    C      0.367500000000     0.690600000000     0.190600000000     0          
C2252    C      0.451600000000     0.637830000000     0.137830000000     0          
C2253    C      0.873750000000     0.794540000000     0.794540000000     0          
C2254    C      0.870800000000     0.768010000000     0.768010000000     0          
C2255    C      0.867800000000     0.717300000000     0.717300000000     0          
C2256    C      0.867500000000     0.690600000000     0.690600000000     0          
C2257    C      0.951600000000     0.637830000000     0.637830000000     0          
C2258    C      0.376250000000     0.294540000000     0.955460000000     0          
C2259    C      0.379200000000     0.268010000000     0.981990000000     0          
C2260    C      0.382200000000     0.217300000000     0.032700000000     0          
C2261    C      0.382500000000     0.190600000000     0.059400000000     0          
C2262    C      0.298400000000     0.137830000000     0.112170000000     0          
C2263    C      0.376250000000     0.794540000000     0.455460000000     0          
C2264    C      0.379200000000     0.768010000000     0.481990000000     0          
C2265    C      0.382200000000     0.717300000000     0.532700000000     0          
C2266    C      0.382500000000     0.690600000000     0.559400000000     0          
C2267    C      0.298400000000     0.637830000000     0.612170000000     0          
C2268    C      0.794540000000     0.876250000000     0.955460000000     0          
C2269    C      0.768010000000     0.879200000000     0.981990000000     0          
C2270    C      0.717300000000     0.882200000000     0.032700000000     0          
C2271    C      0.690600000000     0.882500000000     0.059400000000     0          
C2272    C      0.637830000000     0.798400000000     0.112170000000     0          
C2273    C      0.794540000000     0.376250000000     0.455460000000     0          
C2274    C      0.768010000000     0.379200000000     0.481990000000     0          
C2275    C      0.717300000000     0.382200000000     0.532700000000     0          
C2276    C      0.690600000000     0.382500000000     0.559400000000     0          
C2277    C      0.637830000000     0.298400000000     0.612170000000     0          
C2278    C      0.294540000000     0.373750000000     0.794540000000     0          
C2279    C      0.268010000000     0.370800000000     0.768010000000     0          
C2280    C      0.217300000000     0.367800000000     0.717300000000     0          
C2281    C      0.190600000000     0.367500000000     0.690600000000     0          
C2282    C      0.137830000000     0.451600000000     0.637830000000     0          
C2283    C      0.294540000000     0.873750000000     0.294540000000     0          
C2284    C      0.268010000000     0.870800000000     0.268010000000     0          
C2285    C      0.217300000000     0.867800000000     0.217300000000     0          
C2286    C      0.190600000000     0.867500000000     0.190600000000     0          
C2287    C      0.137830000000     0.951600000000     0.137830000000     0          
C2288    C      0.955460000000     0.376250000000     0.294540000000     0          
C2289    C      0.981990000000     0.379200000000     0.268010000000     0          
C2290    C      0.032700000000     0.382200000000     0.217300000000     0          
C2291    C      0.059400000000     0.382500000000     0.190600000000     0          
C2292    C      0.112170000000     0.298400000000     0.137830000000     0          
C2293    C      0.455460000000     0.376250000000     0.794540000000     0          
C2294    C      0.481990000000     0.379200000000     0.768010000000     0          
C2295    C      0.532700000000     0.382200000000     0.717300000000     0          
C2296    C      0.559400000000     0.382500000000     0.690600000000     0          
C2297    C      0.612170000000     0.298400000000     0.637830000000     0          
C2298    C      0.955460000000     0.794540000000     0.876250000000     0          
C2299    C      0.981990000000     0.768010000000     0.879200000000     0          
C2300    C      0.032700000000     0.717300000000     0.882200000000     0          
C2301    C      0.059400000000     0.690600000000     0.882500000000     0          
C2302    C      0.112170000000     0.637830000000     0.798400000000     0          
C2303    C      0.455460000000     0.794540000000     0.376250000000     0          
C2304    C      0.481990000000     0.768010000000     0.379200000000     0          
C2305    C      0.532700000000     0.717300000000     0.382200000000     0          
C2306    C      0.559400000000     0.690600000000     0.382500000000     0          
C2307    C      0.612170000000     0.637830000000     0.298400000000     0          
C2308    C      0.794540000000     0.294540000000     0.373750000000     0          
C2309    C      0.768010000000     0.268010000000     0.370800000000     0          
C2310    C      0.717300000000     0.217300000000     0.367800000000     0          
C2311    C      0.690600000000     0.190600000000     0.367500000000     0          
C2312    C      0.637830000000     0.137830000000     0.451600000000     0          
C2313    C      0.794540000000     0.794540000000     0.873750000000     0          
C2314    C      0.768010000000     0.768010000000     0.870800000000     0          
C2315    C      0.717300000000     0.717300000000     0.867800000000     0          
C2316    C      0.690600000000     0.690600000000     0.867500000000     0          
C2317    C      0.637830000000     0.637830000000     0.951600000000     0          
C2318    C      0.294540000000     0.955460000000     0.376250000000     0          
C2319    C      0.268010000000     0.981990000000     0.379200000000     0          
C2320    C      0.217300000000     0.032700000000     0.382200000000     0          
C2321    C      0.190600000000     0.059400000000     0.382500000000     0          
C2322    C      0.137830000000     0.112170000000     0.298400000000     0          
C2323    C      0.294540000000     0.455460000000     0.876250000000     0          
C2324    C      0.268010000000     0.481990000000     0.879200000000     0          
C2325    C      0.217300000000     0.532700000000     0.882200000000     0          
C2326    C      0.190600000000     0.559400000000     0.882500000000     0          
C2327    C      0.137830000000     0.612170000000     0.798400000000     0          
C2328    C      0.205460000000     0.626250000000     0.705460000000     0          
C2329    C      0.231990000000     0.629200000000     0.731990000000     0          
C2330    C      0.282700000000     0.632200000000     0.782700000000     0          
C2331    C      0.309400000000     0.632500000000     0.809400000000     0          
C2332    C      0.362170000000     0.548400000000     0.862170000000     0          
C2333    C      0.205460000000     0.126250000000     0.205460000000     0          
C2334    C      0.231990000000     0.129200000000     0.231990000000     0          
C2335    C      0.282700000000     0.132200000000     0.282700000000     0          
C2336    C      0.309400000000     0.132500000000     0.309400000000     0          
C2337    C      0.362170000000     0.048400000000     0.362170000000     0          
C2338    C      0.044540000000     0.123750000000     0.205460000000     0          
C2339    C      0.018010000000     0.120800000000     0.231990000000     0          
C2340    C      0.967300000000     0.117800000000     0.282700000000     0          
C2341    C      0.940600000000     0.117500000000     0.309400000000     0          
C2342    C      0.887830000000     0.201600000000     0.362170000000     0          
C2343    C      0.544540000000     0.123750000000     0.705460000000     0          
C2344    C      0.518010000000     0.120800000000     0.731990000000     0          
C2345    C      0.467300000000     0.117800000000     0.782700000000     0          
C2346    C      0.440600000000     0.117500000000     0.809400000000     0          
C2347    C      0.387830000000     0.201600000000     0.862170000000     0          
C2348    C      0.705460000000     0.623750000000     0.044540000000     0          
C2349    C      0.731990000000     0.620800000000     0.018010000000     0          
C2350    C      0.782700000000     0.617800000000     0.967300000000     0          
C2351    C      0.809400000000     0.617500000000     0.940600000000     0          
C2352    C      0.862170000000     0.701600000000     0.887830000000     0          
C2353    C      0.705460000000     0.123750000000     0.544540000000     0          
C2354    C      0.731990000000     0.120800000000     0.518010000000     0          
C2355    C      0.782700000000     0.117800000000     0.467300000000     0          
C2356    C      0.809400000000     0.117500000000     0.440600000000     0          
C2357    C      0.862170000000     0.201600000000     0.387830000000     0          
C2358    C      0.623750000000     0.044540000000     0.705460000000     0          
C2359    C      0.620800000000     0.018010000000     0.731990000000     0          
C2360    C      0.617800000000     0.967300000000     0.782700000000     0          
C2361    C      0.617500000000     0.940600000000     0.809400000000     0          
C2362    C      0.701600000000     0.887830000000     0.862170000000     0          
C2363    C      0.623750000000     0.544540000000     0.205460000000     0          
C2364    C      0.620800000000     0.518010000000     0.231990000000     0          
C2365    C      0.617800000000     0.467300000000     0.282700000000     0          
C2366    C      0.617500000000     0.440600000000     0.309400000000     0          
C2367    C      0.701600000000     0.387830000000     0.362170000000     0          
C2368    C      0.123750000000     0.205460000000     0.044540000000     0          
C2369    C      0.120800000000     0.231990000000     0.018010000000     0          
C2370    C      0.117800000000     0.282700000000     0.967300000000     0          
C2371    C      0.117500000000     0.309400000000     0.940600000000     0          
C2372    C      0.201600000000     0.362170000000     0.887830000000     0          
C2373    C      0.123750000000     0.705460000000     0.544540000000     0          
C2374    C      0.120800000000     0.731990000000     0.518010000000     0          
C2375    C      0.117800000000     0.782700000000     0.467300000000     0          
C2376    C      0.117500000000     0.809400000000     0.440600000000     0          
C2377    C      0.201600000000     0.862170000000     0.387830000000     0          
C2378    C      0.626250000000     0.705460000000     0.205460000000     0          
C2379    C      0.629200000000     0.731990000000     0.231990000000     0          
C2380    C      0.632200000000     0.782700000000     0.282700000000     0          
C2381    C      0.632500000000     0.809400000000     0.309400000000     0          
C2382    C      0.548400000000     0.862170000000     0.362170000000     0          
C2383    C      0.126250000000     0.705460000000     0.705460000000     0          
C2384    C      0.129200000000     0.731990000000     0.731990000000     0          
C2385    C      0.132200000000     0.782700000000     0.782700000000     0          
C2386    C      0.132500000000     0.809400000000     0.809400000000     0          
C2387    C      0.048400000000     0.862170000000     0.862170000000     0          
C2388    C      0.044540000000     0.705460000000     0.623750000000     0          
C2389    C      0.018010000000     0.731990000000     0.620800000000     0          
C2390    C      0.967300000000     0.782700000000     0.617800000000     0          
C2391    C      0.940600000000     0.809400000000     0.617500000000     0          
C2392    C      0.887830000000     0.862170000000     0.701600000000     0          
C2393    C      0.544540000000     0.705460000000     0.123750000000     0          
C2394    C      0.518010000000     0.731990000000     0.120800000000     0          
C2395    C      0.467300000000     0.782700000000     0.117800000000     0          
C2396    C      0.440600000000     0.809400000000     0.117500000000     0          
C2397    C      0.387830000000     0.862170000000     0.201600000000     0          
C2398    C      0.705460000000     0.205460000000     0.626250000000     0          
C2399    C      0.731990000000     0.231990000000     0.629200000000     0          
C2400    C      0.782700000000     0.282700000000     0.632200000000     0          
C2401    C      0.809400000000     0.309400000000     0.632500000000     0          
C2402    C      0.862170000000     0.362170000000     0.548400000000     0          
C2403    C      0.705460000000     0.705460000000     0.126250000000     0          
C2404    C      0.731990000000     0.731990000000     0.129200000000     0          
C2405    C      0.782700000000     0.782700000000     0.132200000000     0          
C2406    C      0.809400000000     0.809400000000     0.132500000000     0          
C2407    C      0.862170000000     0.862170000000     0.048400000000     0          
C2408    C      0.205460000000     0.044540000000     0.123750000000     0          
C2409    C      0.231990000000     0.018010000000     0.120800000000     0          
C2410    C      0.282700000000     0.967300000000     0.117800000000     0          
C2411    C      0.309400000000     0.940600000000     0.117500000000     0          
C2412    C      0.362170000000     0.887830000000     0.201600000000     0          
C2413    C      0.205460000000     0.544540000000     0.623750000000     0          
C2414    C      0.231990000000     0.518010000000     0.620800000000     0          
C2415    C      0.282700000000     0.467300000000     0.617800000000     0          
C2416    C      0.309400000000     0.440600000000     0.617500000000     0          
C2417    C      0.362170000000     0.387830000000     0.701600000000     0          
H2418    H      0.818800000000     0.672890000000     0.910360000000     0          
H2419    H      0.910360000000     0.672890000000     0.818800000000     0          
H2420    H      0.904930000000     0.724730000000     0.857820000000     0          
H2421    H      0.857820000000     0.724730000000     0.904930000000     0          
H2422    H      0.773990000000     0.604630000000     0.899120000000     0          
H2423    H      0.899120000000     0.604630000000     0.773990000000     0          
H2424    H      0.947620000000     0.623190000000     0.837050000000     0          
H2425    H      0.837050000000     0.623190000000     0.947620000000     0          
H2426    H      0.100880000000     0.395370000000     0.226010000000     0          
H2427    H      0.226010000000     0.395370000000     0.100880000000     0          
H2428    H      0.162950000000     0.376810000000     0.052380000000     0          
H2429    H      0.052380000000     0.376810000000     0.162950000000     0          
H2430    H      0.089640000000     0.327110000000     0.181200000000     0          
H2431    H      0.181200000000     0.327110000000     0.089640000000     0          
H2432    H      0.142180000000     0.275270000000     0.095070000000     0          
H2433    H      0.095070000000     0.275270000000     0.142180000000     0          
H2434    H      0.226010000000     0.149120000000     0.854630000000     0          
H2435    H      0.100880000000     0.023990000000     0.854630000000     0          
H2436    H      0.052380000000     0.087050000000     0.873190000000     0          
H2437    H      0.095070000000     0.107820000000     0.974730000000     0          
H2438    H      0.162950000000     0.197620000000     0.873190000000     0          
H2439    H      0.142180000000     0.154930000000     0.974730000000     0          
H2440    H      0.181200000000     0.160360000000     0.922890000000     0          
H2441    H      0.089640000000     0.068800000000     0.922890000000     0          
H2442    H      0.100880000000     0.895370000000     0.726010000000     0          
H2443    H      0.226010000000     0.895370000000     0.600880000000     0          
H2444    H      0.052380000000     0.876810000000     0.662950000000     0          
H2445    H      0.162950000000     0.876810000000     0.552380000000     0          
H2446    H      0.089640000000     0.827110000000     0.681200000000     0          
H2447    H      0.181200000000     0.827110000000     0.589640000000     0          
H2448    H      0.095070000000     0.775270000000     0.642180000000     0          
H2449    H      0.142180000000     0.775270000000     0.595070000000     0          
H2450    H      0.912950000000     0.802380000000     0.623190000000     0          
H2451    H      0.976010000000     0.850880000000     0.604630000000     0          
H2452    H      0.850880000000     0.976010000000     0.604630000000     0          
H2453    H      0.802380000000     0.912950000000     0.623190000000     0          
H2454    H      0.839640000000     0.931200000000     0.672890000000     0          
H2455    H      0.931200000000     0.839640000000     0.672890000000     0          
H2456    H      0.845070000000     0.892180000000     0.724730000000     0          
H2457    H      0.892180000000     0.845070000000     0.724730000000     0          
H2458    H      0.604630000000     0.976010000000     0.850880000000     0          
H2459    H      0.623190000000     0.912950000000     0.802380000000     0          
H2460    H      0.604630000000     0.850880000000     0.976010000000     0          
H2461    H      0.672890000000     0.931200000000     0.839640000000     0          
H2462    H      0.623190000000     0.802380000000     0.912950000000     0          
H2463    H      0.724730000000     0.892180000000     0.845070000000     0          
H2464    H      0.672890000000     0.839640000000     0.931200000000     0          
H2465    H      0.724730000000     0.845070000000     0.892180000000     0          
H2466    H      0.395370000000     0.226010000000     0.100880000000     0          
H2467    H      0.395370000000     0.100880000000     0.226010000000     0          
H2468    H      0.376810000000     0.162950000000     0.052380000000     0          
H2469    H      0.376810000000     0.052380000000     0.162950000000     0          
H2470    H      0.327110000000     0.181200000000     0.089640000000     0          
H2471    H      0.327110000000     0.089640000000     0.181200000000     0          
H2472    H      0.275270000000     0.095070000000     0.142180000000     0          
H2473    H      0.275270000000     0.142180000000     0.095070000000     0          
H2474    H      0.302380000000     0.912950000000     0.123190000000     0          
H2475    H      0.350880000000     0.976010000000     0.104630000000     0          
H2476    H      0.476010000000     0.850880000000     0.104630000000     0          
H2477    H      0.412950000000     0.802380000000     0.123190000000     0          
H2478    H      0.345070000000     0.892180000000     0.224730000000     0          
H2479    H      0.339640000000     0.931200000000     0.172890000000     0          
H2480    H      0.392180000000     0.845070000000     0.224730000000     0          
H2481    H      0.431200000000     0.839640000000     0.172890000000     0          
H2482    H      0.854630000000     0.149120000000     0.226010000000     0          
H2483    H      0.873190000000     0.197620000000     0.162950000000     0          
H2484    H      0.854630000000     0.023990000000     0.100880000000     0          
H2485    H      0.922890000000     0.068800000000     0.089640000000     0          
H2486    H      0.922890000000     0.160360000000     0.181200000000     0          
H2487    H      0.873190000000     0.087050000000     0.052380000000     0          
H2488    H      0.974730000000     0.107820000000     0.095070000000     0          
H2489    H      0.974730000000     0.154930000000     0.142180000000     0          
H2490    H      0.773990000000     0.104630000000     0.399120000000     0          
H2491    H      0.899120000000     0.104630000000     0.273990000000     0          
H2492    H      0.947620000000     0.123190000000     0.337050000000     0          
H2493    H      0.837050000000     0.123190000000     0.447620000000     0          
H2494    H      0.818800000000     0.172890000000     0.410360000000     0          
H2495    H      0.910360000000     0.172890000000     0.318800000000     0          
H2496    H      0.904930000000     0.224730000000     0.357820000000     0          
H2497    H      0.857820000000     0.224730000000     0.404930000000     0          
H2498    H      0.149120000000     0.023990000000     0.395370000000     0          
H2499    H      0.197620000000     0.087050000000     0.376810000000     0          
H2500    H      0.023990000000     0.149120000000     0.395370000000     0          
H2501    H      0.087050000000     0.197620000000     0.376810000000     0          
H2502    H      0.068800000000     0.160360000000     0.327110000000     0          
H2503    H      0.160360000000     0.068800000000     0.327110000000     0          
H2504    H      0.107820000000     0.154930000000     0.275270000000     0          
H2505    H      0.154930000000     0.107820000000     0.275270000000     0          
H2506    H      0.149120000000     0.854630000000     0.226010000000     0          
H2507    H      0.160360000000     0.922890000000     0.181200000000     0          
H2508    H      0.023990000000     0.854630000000     0.100880000000     0          
H2509    H      0.068800000000     0.922890000000     0.089640000000     0          
H2510    H      0.087050000000     0.873190000000     0.052380000000     0          
H2511    H      0.107820000000     0.974730000000     0.095070000000     0          
H2512    H      0.197620000000     0.873190000000     0.162950000000     0          
H2513    H      0.154930000000     0.974730000000     0.142180000000     0          
H2514    H      0.145370000000     0.850880000000     0.773990000000     0          
H2515    H      0.145370000000     0.976010000000     0.899120000000     0          
H2516    H      0.126810000000     0.912950000000     0.947620000000     0          
H2517    H      0.126810000000     0.802380000000     0.837050000000     0          
H2518    H      0.077110000000     0.839640000000     0.818800000000     0          
H2519    H      0.077110000000     0.931200000000     0.910360000000     0          
H2520    H      0.025270000000     0.892180000000     0.904930000000     0          
H2521    H      0.025270000000     0.845070000000     0.857820000000     0          
H2522    H      0.895370000000     0.523990000000     0.149120000000     0          
H2523    H      0.827110000000     0.568800000000     0.160360000000     0          
H2524    H      0.895370000000     0.649120000000     0.023990000000     0          
H2525    H      0.827110000000     0.660360000000     0.068800000000     0          
H2526    H      0.876810000000     0.697620000000     0.087050000000     0          
H2527    H      0.775270000000     0.654930000000     0.107820000000     0          
H2528    H      0.876810000000     0.587050000000     0.197620000000     0          
H2529    H      0.775270000000     0.607820000000     0.154930000000     0          
H2530    H      0.895370000000     0.023990000000     0.649120000000     0          
H2531    H      0.876810000000     0.087050000000     0.697620000000     0          
H2532    H      0.827110000000     0.068800000000     0.660360000000     0          
H2533    H      0.895370000000     0.149120000000     0.523990000000     0          
H2534    H      0.827110000000     0.160360000000     0.568800000000     0          
H2535    H      0.775270000000     0.154930000000     0.607820000000     0          
H2536    H      0.775270000000     0.107820000000     0.654930000000     0          
H2537    H      0.876810000000     0.197620000000     0.587050000000     0          
H2538    H      0.976010000000     0.899120000000     0.145370000000     0          
H2539    H      0.912950000000     0.947620000000     0.126810000000     0          
H2540    H      0.802380000000     0.837050000000     0.126810000000     0          
H2541    H      0.839640000000     0.818800000000     0.077110000000     0          
H2542    H      0.931200000000     0.910360000000     0.077110000000     0          
H2543    H      0.892180000000     0.904930000000     0.025270000000     0          
H2544    H      0.845070000000     0.857820000000     0.025270000000     0          
H2545    H      0.023990000000     0.649120000000     0.895370000000     0          
H2546    H      0.149120000000     0.523990000000     0.895370000000     0          
H2547    H      0.068800000000     0.660360000000     0.827110000000     0          
H2548    H      0.160360000000     0.568800000000     0.827110000000     0          
H2549    H      0.107820000000     0.654930000000     0.775270000000     0          
H2550    H      0.154930000000     0.607820000000     0.775270000000     0          
H2551    H      0.087050000000     0.697620000000     0.876810000000     0          
H2552    H      0.197620000000     0.587050000000     0.876810000000     0          
H2553    H      0.399120000000     0.645370000000     0.976010000000     0          
H2554    H      0.447620000000     0.626810000000     0.912950000000     0          
H2555    H      0.273990000000     0.645370000000     0.850880000000     0          
H2556    H      0.318800000000     0.577110000000     0.839640000000     0          
H2557    H      0.410360000000     0.577110000000     0.931200000000     0          
H2558    H      0.404930000000     0.525270000000     0.892180000000     0          
H2559    H      0.337050000000     0.626810000000     0.802380000000     0          
H2560    H      0.357820000000     0.525270000000     0.845070000000     0          
H2561    H      0.273990000000     0.850880000000     0.645370000000     0          
H2562    H      0.337050000000     0.802380000000     0.626810000000     0          
H2563    H      0.399120000000     0.976010000000     0.645370000000     0          
H2564    H      0.410360000000     0.931200000000     0.577110000000     0          
H2565    H      0.318800000000     0.839640000000     0.577110000000     0          
H2566    H      0.357820000000     0.845070000000     0.525270000000     0          
H2567    H      0.447620000000     0.912950000000     0.626810000000     0          
H2568    H      0.404930000000     0.892180000000     0.525270000000     0          
H2569    H      0.976010000000     0.645370000000     0.399120000000     0          
H2570    H      0.931200000000     0.577110000000     0.410360000000     0          
H2571    H      0.839640000000     0.577110000000     0.318800000000     0          
H2572    H      0.802380000000     0.626810000000     0.337050000000     0          
H2573    H      0.845070000000     0.525270000000     0.357820000000     0          
H2574    H      0.912950000000     0.626810000000     0.447620000000     0          
H2575    H      0.892180000000     0.525270000000     0.404930000000     0          
H2576    H      0.850880000000     0.645370000000     0.273990000000     0          
H2577    H      0.899120000000     0.273990000000     0.104630000000     0          
H2578    H      0.910360000000     0.318800000000     0.172890000000     0          
H2579    H      0.773990000000     0.399120000000     0.104630000000     0          
H2580    H      0.818800000000     0.410360000000     0.172890000000     0          
H2581    H      0.947620000000     0.337050000000     0.123190000000     0          
H2582    H      0.904930000000     0.357820000000     0.224730000000     0          
H2583    H      0.837050000000     0.447620000000     0.123190000000     0          
H2584    H      0.857820000000     0.404930000000     0.224730000000     0          
H2585    H      0.600880000000     0.354630000000     0.023990000000     0          
H2586    H      0.589640000000     0.422890000000     0.068800000000     0          
H2587    H      0.726010000000     0.354630000000     0.149120000000     0          
H2588    H      0.681200000000     0.422890000000     0.160360000000     0          
H2589    H      0.662950000000     0.373190000000     0.197620000000     0          
H2590    H      0.642180000000     0.474730000000     0.154930000000     0          
H2591    H      0.552380000000     0.373190000000     0.087050000000     0          
H2592    H      0.595070000000     0.474730000000     0.107820000000     0          
H2593    H      0.726010000000     0.149120000000     0.354630000000     0          
H2594    H      0.681200000000     0.160360000000     0.422890000000     0          
H2595    H      0.600880000000     0.023990000000     0.354630000000     0          
H2596    H      0.589640000000     0.068800000000     0.422890000000     0          
H2597    H      0.552380000000     0.087050000000     0.373190000000     0          
H2598    H      0.595070000000     0.107820000000     0.474730000000     0          
H2599    H      0.662950000000     0.197620000000     0.373190000000     0          
H2600    H      0.642180000000     0.154930000000     0.474730000000     0          
H2601    H      0.104630000000     0.899120000000     0.273990000000     0          
H2602    H      0.172890000000     0.910360000000     0.318800000000     0          
H2603    H      0.104630000000     0.773990000000     0.399120000000     0          
H2604    H      0.172890000000     0.818800000000     0.410360000000     0          
H2605    H      0.123190000000     0.947620000000     0.337050000000     0          
H2606    H      0.224730000000     0.904930000000     0.357820000000     0          
H2607    H      0.123190000000     0.837050000000     0.447620000000     0          
H2608    H      0.224730000000     0.857820000000     0.404930000000     0          
H2609    H      0.604630000000     0.350880000000     0.476010000000     0          
H2610    H      0.672890000000     0.339640000000     0.431200000000     0          
H2611    H      0.604630000000     0.476010000000     0.350880000000     0          
H2612    H      0.672890000000     0.431200000000     0.339640000000     0          
H2613    H      0.623190000000     0.302380000000     0.412950000000     0          
H2614    H      0.724730000000     0.345070000000     0.392180000000     0          
H2615    H      0.724730000000     0.392180000000     0.345070000000     0          
H2616    H      0.623190000000     0.412950000000     0.302380000000     0          
H2617    H      0.327110000000     0.681200000000     0.589640000000     0          
H2618    H      0.395370000000     0.600880000000     0.726010000000     0          
H2619    H      0.327110000000     0.589640000000     0.681200000000     0          
H2620    H      0.376810000000     0.552380000000     0.662950000000     0          
H2621    H      0.275270000000     0.595070000000     0.642180000000     0          
H2622    H      0.275270000000     0.642180000000     0.595070000000     0          
H2623    H      0.395370000000     0.726010000000     0.600880000000     0          
H2624    H      0.376810000000     0.662950000000     0.552380000000     0          
H2625    H      0.645370000000     0.850880000000     0.273990000000     0          
H2626    H      0.577110000000     0.839640000000     0.318800000000     0          
H2627    H      0.645370000000     0.976010000000     0.399120000000     0          
H2628    H      0.577110000000     0.931200000000     0.410360000000     0          
H2629    H      0.626810000000     0.912950000000     0.447620000000     0          
H2630    H      0.525270000000     0.892180000000     0.404930000000     0          
H2631    H      0.626810000000     0.802380000000     0.337050000000     0          
H2632    H      0.525270000000     0.845070000000     0.357820000000     0          
H2633    H      0.523990000000     0.649120000000     0.395370000000     0          
H2634    H      0.568800000000     0.660360000000     0.327110000000     0          
H2635    H      0.649120000000     0.523990000000     0.395370000000     0          
H2636    H      0.660360000000     0.568800000000     0.327110000000     0          
H2637    H      0.697620000000     0.587050000000     0.376810000000     0          
H2638    H      0.654930000000     0.607820000000     0.275270000000     0          
H2639    H      0.587050000000     0.697620000000     0.376810000000     0          
H2640    H      0.607820000000     0.654930000000     0.275270000000     0          
H2641    H      0.476010000000     0.604630000000     0.350880000000     0          
H2642    H      0.431200000000     0.672890000000     0.339640000000     0          
H2643    H      0.350880000000     0.604630000000     0.476010000000     0          
H2644    H      0.339640000000     0.672890000000     0.431200000000     0          
H2645    H      0.302380000000     0.623190000000     0.412950000000     0          
H2646    H      0.345070000000     0.724730000000     0.392180000000     0          
H2647    H      0.412950000000     0.623190000000     0.302380000000     0          
H2648    H      0.392180000000     0.724730000000     0.345070000000     0          
H2649    H      0.226010000000     0.649120000000     0.354630000000     0          
H2650    H      0.181200000000     0.660360000000     0.422890000000     0          
H2651    H      0.100880000000     0.523990000000     0.354630000000     0          
H2652    H      0.089640000000     0.568800000000     0.422890000000     0          
H2653    H      0.052380000000     0.587050000000     0.373190000000     0          
H2654    H      0.095070000000     0.607820000000     0.474730000000     0          
H2655    H      0.162950000000     0.697620000000     0.373190000000     0          
H2656    H      0.142180000000     0.654930000000     0.474730000000     0          
H2657    H      0.104630000000     0.399120000000     0.773990000000     0          
H2658    H      0.172890000000     0.410360000000     0.818800000000     0          
H2659    H      0.104630000000     0.273990000000     0.899120000000     0          
H2660    H      0.172890000000     0.318800000000     0.910360000000     0          
H2661    H      0.123190000000     0.447620000000     0.837050000000     0          
H2662    H      0.224730000000     0.404930000000     0.857820000000     0          
H2663    H      0.123190000000     0.337050000000     0.947620000000     0          
H2664    H      0.224730000000     0.357820000000     0.904930000000     0          
H2665    H      0.854630000000     0.726010000000     0.649120000000     0          
H2666    H      0.922890000000     0.681200000000     0.660360000000     0          
H2667    H      0.854630000000     0.600880000000     0.523990000000     0          
H2668    H      0.922890000000     0.589640000000     0.568800000000     0          
H2669    H      0.873190000000     0.552380000000     0.587050000000     0          
H2670    H      0.974730000000     0.595070000000     0.607820000000     0          
H2671    H      0.873190000000     0.662950000000     0.697620000000     0          
H2672    H      0.974730000000     0.642180000000     0.654930000000     0          
H2673    H      0.726010000000     0.649120000000     0.854630000000     0          
H2674    H      0.600880000000     0.523990000000     0.854630000000     0          
H2675    H      0.589640000000     0.568800000000     0.922890000000     0          
H2676    H      0.552380000000     0.587050000000     0.873190000000     0          
H2677    H      0.595070000000     0.607820000000     0.974730000000     0          
H2678    H      0.662950000000     0.697620000000     0.873190000000     0          
H2679    H      0.642180000000     0.654930000000     0.974730000000     0          
H2680    H      0.681200000000     0.660360000000     0.922890000000     0          
H2681    H      0.600880000000     0.854630000000     0.523990000000     0          
H2682    H      0.589640000000     0.922890000000     0.568800000000     0          
H2683    H      0.726010000000     0.854630000000     0.649120000000     0          
H2684    H      0.681200000000     0.922890000000     0.660360000000     0          
H2685    H      0.662950000000     0.873190000000     0.697620000000     0          
H2686    H      0.642180000000     0.974730000000     0.654930000000     0          
H2687    H      0.552380000000     0.873190000000     0.587050000000     0          
H2688    H      0.595070000000     0.974730000000     0.607820000000     0          
H2689    H      0.850880000000     0.273990000000     0.645370000000     0          
H2690    H      0.839640000000     0.318800000000     0.577110000000     0          
H2691    H      0.976010000000     0.399120000000     0.645370000000     0          
H2692    H      0.931200000000     0.410360000000     0.577110000000     0          
H2693    H      0.912950000000     0.447620000000     0.626810000000     0          
H2694    H      0.892180000000     0.404930000000     0.525270000000     0          
H2695    H      0.802380000000     0.337050000000     0.626810000000     0          
H2696    H      0.845070000000     0.357820000000     0.525270000000     0          
H2697    H      0.976010000000     0.145370000000     0.899120000000     0          
H2698    H      0.931200000000     0.077110000000     0.910360000000     0          
H2699    H      0.850880000000     0.145370000000     0.773990000000     0          
H2700    H      0.839640000000     0.077110000000     0.818800000000     0          
H2701    H      0.802380000000     0.126810000000     0.837050000000     0          
H2702    H      0.845070000000     0.025270000000     0.857820000000     0          
H2703    H      0.912950000000     0.126810000000     0.947620000000     0          
H2704    H      0.892180000000     0.025270000000     0.904930000000     0          
H2705    H      0.645370000000     0.350880000000     0.773990000000     0          
H2706    H      0.577110000000     0.339640000000     0.818800000000     0          
H2707    H      0.645370000000     0.476010000000     0.899120000000     0          
H2708    H      0.577110000000     0.431200000000     0.910360000000     0          
H2709    H      0.525270000000     0.345070000000     0.857820000000     0          
H2710    H      0.525270000000     0.392180000000     0.904930000000     0          
H2711    H      0.626810000000     0.302380000000     0.837050000000     0          
H2712    H      0.626810000000     0.412950000000     0.947620000000     0          
H2713    H      0.523990000000     0.149120000000     0.895370000000     0          
H2714    H      0.568800000000     0.160360000000     0.827110000000     0          
H2715    H      0.649120000000     0.023990000000     0.895370000000     0          
H2716    H      0.660360000000     0.068800000000     0.827110000000     0          
H2717    H      0.587050000000     0.197620000000     0.876810000000     0          
H2718    H      0.607820000000     0.154930000000     0.775270000000     0          
H2719    H      0.697620000000     0.087050000000     0.876810000000     0          
H2720    H      0.654930000000     0.107820000000     0.775270000000     0          
H2721    H      0.160360000000     0.422890000000     0.681200000000     0          
H2722    H      0.023990000000     0.354630000000     0.600880000000     0          
H2723    H      0.068800000000     0.422890000000     0.589640000000     0          
H2724    H      0.087050000000     0.373190000000     0.552380000000     0          
H2725    H      0.107820000000     0.474730000000     0.595070000000     0          
H2726    H      0.154930000000     0.474730000000     0.642180000000     0          
H2727    H      0.149120000000     0.354630000000     0.726010000000     0          
H2728    H      0.197620000000     0.373190000000     0.662950000000     0          
H2729    H      0.649120000000     0.395370000000     0.523990000000     0          
H2730    H      0.660360000000     0.327110000000     0.568800000000     0          
H2731    H      0.523990000000     0.395370000000     0.649120000000     0          
H2732    H      0.568800000000     0.327110000000     0.660360000000     0          
H2733    H      0.697620000000     0.376810000000     0.587050000000     0          
H2734    H      0.654930000000     0.275270000000     0.607820000000     0          
H2735    H      0.587050000000     0.376810000000     0.697620000000     0          
H2736    H      0.607820000000     0.275270000000     0.654930000000     0          
H2737    H      0.649120000000     0.895370000000     0.023990000000     0          
H2738    H      0.660360000000     0.827110000000     0.068800000000     0          
H2739    H      0.523990000000     0.895370000000     0.149120000000     0          
H2740    H      0.568800000000     0.827110000000     0.160360000000     0          
H2741    H      0.587050000000     0.876810000000     0.197620000000     0          
H2742    H      0.607820000000     0.775270000000     0.154930000000     0          
H2743    H      0.697620000000     0.876810000000     0.087050000000     0          
H2744    H      0.654930000000     0.775270000000     0.107820000000     0          
H2745    H      0.476010000000     0.145370000000     0.399120000000     0          
H2746    H      0.431200000000     0.077110000000     0.410360000000     0          
H2747    H      0.350880000000     0.145370000000     0.273990000000     0          
H2748    H      0.339640000000     0.077110000000     0.318800000000     0          
H2749    H      0.412950000000     0.126810000000     0.447620000000     0          
H2750    H      0.392180000000     0.025270000000     0.404930000000     0          
H2751    H      0.302380000000     0.126810000000     0.337050000000     0          
H2752    H      0.345070000000     0.025270000000     0.357820000000     0          
H2753    H      0.422890000000     0.068800000000     0.589640000000     0          
H2754    H      0.422890000000     0.160360000000     0.681200000000     0          
H2755    H      0.474730000000     0.107820000000     0.595070000000     0          
H2756    H      0.474730000000     0.154930000000     0.642180000000     0          
H2757    H      0.354630000000     0.023990000000     0.600880000000     0          
H2758    H      0.373190000000     0.087050000000     0.552380000000     0          
H2759    H      0.354630000000     0.149120000000     0.726010000000     0          
H2760    H      0.373190000000     0.197620000000     0.662950000000     0          
H2761    H      0.476010000000     0.350880000000     0.604630000000     0          
H2762    H      0.412950000000     0.302380000000     0.623190000000     0          
H2763    H      0.350880000000     0.476010000000     0.604630000000     0          
H2764    H      0.339640000000     0.431200000000     0.672890000000     0          
H2765    H      0.431200000000     0.339640000000     0.672890000000     0          
H2766    H      0.392180000000     0.345070000000     0.724730000000     0          
H2767    H      0.302380000000     0.412950000000     0.623190000000     0          
H2768    H      0.345070000000     0.392180000000     0.724730000000     0          
H2769    H      0.145370000000     0.350880000000     0.273990000000     0          
H2770    H      0.077110000000     0.339640000000     0.318800000000     0          
H2771    H      0.145370000000     0.476010000000     0.399120000000     0          
H2772    H      0.077110000000     0.431200000000     0.410360000000     0          
H2773    H      0.126810000000     0.302380000000     0.337050000000     0          
H2774    H      0.025270000000     0.345070000000     0.357820000000     0          
H2775    H      0.126810000000     0.412950000000     0.447620000000     0          
H2776    H      0.025270000000     0.392180000000     0.404930000000     0          
H2777    H      0.273990000000     0.104630000000     0.899120000000     0          
H2778    H      0.318800000000     0.172890000000     0.910360000000     0          
H2779    H      0.399120000000     0.104630000000     0.773990000000     0          
H2780    H      0.410360000000     0.172890000000     0.818800000000     0          
H2781    H      0.337050000000     0.123190000000     0.947620000000     0          
H2782    H      0.357820000000     0.224730000000     0.904930000000     0          
H2783    H      0.447620000000     0.123190000000     0.837050000000     0          
H2784    H      0.404930000000     0.224730000000     0.857820000000     0          
H2785    H      0.354630000000     0.726010000000     0.149120000000     0          
H2786    H      0.422890000000     0.681200000000     0.160360000000     0          
H2787    H      0.354630000000     0.600880000000     0.023990000000     0          
H2788    H      0.422890000000     0.589640000000     0.068800000000     0          
H2789    H      0.373190000000     0.552380000000     0.087050000000     0          
H2790    H      0.474730000000     0.595070000000     0.107820000000     0          
H2791    H      0.373190000000     0.662950000000     0.197620000000     0          
H2792    H      0.474730000000     0.642180000000     0.154930000000     0          
H2793    H      0.350880000000     0.273990000000     0.145370000000     0          
H2794    H      0.339640000000     0.318800000000     0.077110000000     0          
H2795    H      0.476010000000     0.399120000000     0.145370000000     0          
H2796    H      0.431200000000     0.410360000000     0.077110000000     0          
H2797    H      0.302380000000     0.337050000000     0.126810000000     0          
H2798    H      0.345070000000     0.357820000000     0.025270000000     0          
H2799    H      0.412950000000     0.447620000000     0.126810000000     0          
H2800    H      0.392180000000     0.404930000000     0.025270000000     0          


