data_XICNOO

_audit_creation_method RASPA-1.0
_audit_creation_date 2020-4-3
_audit_author_name 'Rocio Bueno-Perez'

_cell_length_a    39.11
_cell_length_b    39.11
_cell_length_c    39.11
_cell_angle_alpha 90
_cell_angle_beta  90
_cell_angle_gamma 90
_cell_volume      59822.3

_symmetry_cell_setting          cubic
_symmetry_space_group_name_Hall 'P 1'
_symmetry_space_group_name_H-M  'P 1'
_symmetry_Int_Tables_number     1

_symmetry_equiv_pos_as_xyz 'x,y,z'

loop_
_atom_site_label
_atom_site_type_symbol
_atom_site_fract_x
_atom_site_fract_y
_atom_site_fract_z
_atom_site_charge
Zr1      Zr     0.218236000000     0.281764000000     0.045306000000     0          
Zr2      Zr     0.205331000000     0.205331000000     0.000000000000     0          
S1       S      0.248680000000     0.111820000000     0.111820000000     0          
C1       C      0.230460000000     0.153290000000     0.057460000000     0          
C2       C      0.222140000000     0.123360000000     0.079210000000     0          
C3       C      0.194100000000     0.103100000000     0.077600000000     0          
H1       H      0.176800000000     0.105700000000     0.061500000000     0          
O1       O      0.209180000000     0.160520000000     0.034300000000     0          
O2       O      0.228750000000     0.228750000000     0.043800000000     0          
O3       O      0.257530000000     0.169080000000     0.064430000000     0          
O4       O      0.223600000000     0.276400000000     0.100530000000     0          
O5       O      0.178830000000     0.321170000000     0.043300000000     0          
O6       O      0.239940000000     0.303500000000     0.000000000000     0          
C1JD     C      0.230460000000     0.057460000000     0.153290000000     0          
C2JD     C      0.222140000000     0.079210000000     0.123360000000     0          
C3JD     C      0.194100000000     0.077600000000     0.103100000000     0          
H1JD     H      0.176800000000     0.061500000000     0.105700000000     0          
O1JD     O      0.209180000000     0.034300000000     0.160520000000     0          
O3JD     O      0.257530000000     0.064430000000     0.169080000000     0          
S1D      S      0.111820000000     0.248680000000     0.111820000000     0          
C1D      C      0.057460000000     0.230460000000     0.153290000000     0          
C2D      C      0.079210000000     0.222140000000     0.123360000000     0          
C3D      C      0.077600000000     0.194100000000     0.103100000000     0          
H1D      H      0.061500000000     0.176800000000     0.105700000000     0          
O1D      O      0.034300000000     0.209180000000     0.160520000000     0          
O3D      O      0.064430000000     0.257530000000     0.169080000000     0          
C1ED     C      0.153290000000     0.230460000000     0.057460000000     0          
C2ED     C      0.123360000000     0.222140000000     0.079210000000     0          
C3ED     C      0.103100000000     0.194100000000     0.077600000000     0          
H1ED     H      0.105700000000     0.176800000000     0.061500000000     0          
O1ED     O      0.160520000000     0.209180000000     0.034300000000     0          
O3ED     O      0.169080000000     0.257530000000     0.064430000000     0          
Zr1UB    Zr     0.281764000000     0.218236000000     0.045306000000     0          
O2UB     O      0.271250000000     0.271250000000     0.043800000000     0          
O4UB     O      0.276400000000     0.223600000000     0.100530000000     0          
O5UB     O      0.321170000000     0.178830000000     0.043300000000     0          
O6UB     O      0.260060000000     0.196500000000     0.000000000000     0          
Zr1H     Zr     0.281764000000     0.045306000000     0.218236000000     0          
Zr1L     Zr     0.281764000000     0.218236000000     0.954694000000     0          
Zr1CA    Zr     0.045306000000     0.281764000000     0.218236000000     0          
Zr1GC    Zr     0.218236000000     0.281764000000     0.954694000000     0          
Zr2D     Zr     0.000000000000     0.205331000000     0.205330000000     0          
Zr2H     Zr     0.205331000000     0.000000000000     0.205330000000     0          
Zr2UB    Zr     0.294669000000     0.294669000000     0.000000000000     0          
O1L      O      0.160520000000     0.209180000000     0.965700000000     0          
O1SC     O      0.209180000000     0.160520000000     0.965700000000     0          
O2L      O      0.228750000000     0.228750000000     0.956200000000     0          
O3UB     O      0.242470000000     0.330920000000     0.064430000000     0          
O3XF     O      0.330920000000     0.242470000000     0.064430000000     0          
O6L      O      0.303500000000     0.239940000000     0.000000000000     0          
O6GC     O      0.196500000000     0.260060000000     0.000000000000     0          
Zr1      Zr     0.718236000000     0.218236000000     0.045306000000     0          
Zr2      Zr     0.794669000000     0.205331000000     0.000000000000     0          
S1       S      0.888180000000     0.248680000000     0.111820000000     0          
C1       C      0.846710000000     0.230460000000     0.057460000000     0          
C2       C      0.876640000000     0.222140000000     0.079210000000     0          
C3       C      0.896900000000     0.194100000000     0.077600000000     0          
H1       H      0.894300000000     0.176800000000     0.061500000000     0          
O1       O      0.839480000000     0.209180000000     0.034300000000     0          
O2       O      0.771250000000     0.228750000000     0.043800000000     0          
O3       O      0.830920000000     0.257530000000     0.064430000000     0          
O4       O      0.723600000000     0.223600000000     0.100530000000     0          
O5       O      0.678830000000     0.178830000000     0.043300000000     0          
O6       O      0.696500000000     0.239940000000     0.000000000000     0          
C1JD     C      0.942540000000     0.230460000000     0.153290000000     0          
C2JD     C      0.920790000000     0.222140000000     0.123360000000     0          
C3JD     C      0.922400000000     0.194100000000     0.103100000000     0          
H1JD     H      0.938500000000     0.176800000000     0.105700000000     0          
O1JD     O      0.965700000000     0.209180000000     0.160520000000     0          
O3JD     O      0.935570000000     0.257530000000     0.169080000000     0          
S1D      S      0.751320000000     0.111820000000     0.111820000000     0          
C1D      C      0.769540000000     0.057460000000     0.153290000000     0          
C2D      C      0.777860000000     0.079210000000     0.123360000000     0          
C3D      C      0.805900000000     0.077600000000     0.103100000000     0          
H1D      H      0.823200000000     0.061500000000     0.105700000000     0          
O1D      O      0.790820000000     0.034300000000     0.160520000000     0          
O3D      O      0.742470000000     0.064430000000     0.169080000000     0          
C1ED     C      0.769540000000     0.153290000000     0.057460000000     0          
C2ED     C      0.777860000000     0.123360000000     0.079210000000     0          
C3ED     C      0.805900000000     0.103100000000     0.077600000000     0          
H1ED     H      0.823200000000     0.105700000000     0.061500000000     0          
O1ED     O      0.790820000000     0.160520000000     0.034300000000     0          
O3ED     O      0.742470000000     0.169080000000     0.064430000000     0          
Zr1UB    Zr     0.781764000000     0.281764000000     0.045306000000     0          
O2UB     O      0.728750000000     0.271250000000     0.043800000000     0          
O4UB     O      0.776400000000     0.276400000000     0.100530000000     0          
O5UB     O      0.821170000000     0.321170000000     0.043300000000     0          
O6UB     O      0.803500000000     0.260060000000     0.000000000000     0          
Zr1H     Zr     0.954694000000     0.281764000000     0.218236000000     0          
Zr1L     Zr     0.781764000000     0.281764000000     0.954694000000     0          
Zr1CA    Zr     0.718236000000     0.045306000000     0.218236000000     0          
Zr1GC    Zr     0.718236000000     0.218236000000     0.954694000000     0          
Zr2D     Zr     0.794669000000     0.000000000000     0.205330000000     0          
Zr2UB    Zr     0.705331000000     0.294669000000     0.000000000000     0          
O1L      O      0.790820000000     0.160520000000     0.965700000000     0          
O1SC     O      0.839480000000     0.209180000000     0.965700000000     0          
O2L      O      0.771250000000     0.228750000000     0.956200000000     0          
O3UB     O      0.669080000000     0.242470000000     0.064430000000     0          
O3XF     O      0.757530000000     0.330920000000     0.064430000000     0          
O6L      O      0.760060000000     0.303500000000     0.000000000000     0          
O6GC     O      0.739940000000     0.196500000000     0.000000000000     0          
Zr1      Zr     0.781764000000     0.718236000000     0.045306000000     0          
Zr2      Zr     0.794669000000     0.794669000000     0.000000000000     0          
S1       S      0.751320000000     0.888180000000     0.111820000000     0          
C1       C      0.769540000000     0.846710000000     0.057460000000     0          
C2       C      0.777860000000     0.876640000000     0.079210000000     0          
C3       C      0.805900000000     0.896900000000     0.077600000000     0          
H1       H      0.823200000000     0.894300000000     0.061500000000     0          
O1       O      0.790820000000     0.839480000000     0.034300000000     0          
O2       O      0.771250000000     0.771250000000     0.043800000000     0          
O3       O      0.742470000000     0.830920000000     0.064430000000     0          
O4       O      0.776400000000     0.723600000000     0.100530000000     0          
O5       O      0.821170000000     0.678830000000     0.043300000000     0          
O6       O      0.760060000000     0.696500000000     0.000000000000     0          
C1JD     C      0.769540000000     0.942540000000     0.153290000000     0          
C2JD     C      0.777860000000     0.920790000000     0.123360000000     0          
C3JD     C      0.805900000000     0.922400000000     0.103100000000     0          
H1JD     H      0.823200000000     0.938500000000     0.105700000000     0          
O1JD     O      0.790820000000     0.965700000000     0.160520000000     0          
O3JD     O      0.742470000000     0.935570000000     0.169080000000     0          
S1D      S      0.888180000000     0.751320000000     0.111820000000     0          
C1D      C      0.942540000000     0.769540000000     0.153290000000     0          
C2D      C      0.920790000000     0.777860000000     0.123360000000     0          
C3D      C      0.922400000000     0.805900000000     0.103100000000     0          
H1D      H      0.938500000000     0.823200000000     0.105700000000     0          
O1D      O      0.965700000000     0.790820000000     0.160520000000     0          
O3D      O      0.935570000000     0.742470000000     0.169080000000     0          
C1ED     C      0.846710000000     0.769540000000     0.057460000000     0          
C2ED     C      0.876640000000     0.777860000000     0.079210000000     0          
C3ED     C      0.896900000000     0.805900000000     0.077600000000     0          
H1ED     H      0.894300000000     0.823200000000     0.061500000000     0          
O1ED     O      0.839480000000     0.790820000000     0.034300000000     0          
O3ED     O      0.830920000000     0.742470000000     0.064430000000     0          
Zr1UB    Zr     0.718236000000     0.781764000000     0.045306000000     0          
O2UB     O      0.728750000000     0.728750000000     0.043800000000     0          
O4UB     O      0.723600000000     0.776400000000     0.100530000000     0          
O5UB     O      0.678830000000     0.821170000000     0.043300000000     0          
O6UB     O      0.739940000000     0.803500000000     0.000000000000     0          
Zr1H     Zr     0.718236000000     0.954694000000     0.218236000000     0          
Zr1L     Zr     0.718236000000     0.781764000000     0.954694000000     0          
Zr1CA    Zr     0.954694000000     0.718236000000     0.218236000000     0          
Zr1GC    Zr     0.781764000000     0.718236000000     0.954694000000     0          
Zr2D     Zr     0.000000000000     0.794669000000     0.205330000000     0          
Zr2UB    Zr     0.705331000000     0.705331000000     0.000000000000     0          
O1L      O      0.839480000000     0.790820000000     0.965700000000     0          
O1SC     O      0.790820000000     0.839480000000     0.965700000000     0          
O2L      O      0.771250000000     0.771250000000     0.956200000000     0          
O3UB     O      0.757530000000     0.669080000000     0.064430000000     0          
O3XF     O      0.669080000000     0.757530000000     0.064430000000     0          
O6L      O      0.696500000000     0.760060000000     0.000000000000     0          
O6GC     O      0.803500000000     0.739940000000     0.000000000000     0          
Zr1      Zr     0.281764000000     0.781764000000     0.045306000000     0          
Zr2      Zr     0.205331000000     0.794669000000     0.000000000000     0          
S1       S      0.111820000000     0.751320000000     0.111820000000     0          
C1       C      0.153290000000     0.769540000000     0.057460000000     0          
C2       C      0.123360000000     0.777860000000     0.079210000000     0          
C3       C      0.103100000000     0.805900000000     0.077600000000     0          
H1       H      0.105700000000     0.823200000000     0.061500000000     0          
O1       O      0.160520000000     0.790820000000     0.034300000000     0          
O2       O      0.228750000000     0.771250000000     0.043800000000     0          
O3       O      0.169080000000     0.742470000000     0.064430000000     0          
O4       O      0.276400000000     0.776400000000     0.100530000000     0          
O5       O      0.321170000000     0.821170000000     0.043300000000     0          
O6       O      0.303500000000     0.760060000000     0.000000000000     0          
C1JD     C      0.057460000000     0.769540000000     0.153290000000     0          
C2JD     C      0.079210000000     0.777860000000     0.123360000000     0          
C3JD     C      0.077600000000     0.805900000000     0.103100000000     0          
H1JD     H      0.061500000000     0.823200000000     0.105700000000     0          
O1JD     O      0.034300000000     0.790820000000     0.160520000000     0          
O3JD     O      0.064430000000     0.742470000000     0.169080000000     0          
S1D      S      0.248680000000     0.888180000000     0.111820000000     0          
C1D      C      0.230460000000     0.942540000000     0.153290000000     0          
C2D      C      0.222140000000     0.920790000000     0.123360000000     0          
C3D      C      0.194100000000     0.922400000000     0.103100000000     0          
H1D      H      0.176800000000     0.938500000000     0.105700000000     0          
O1D      O      0.209180000000     0.965700000000     0.160520000000     0          
O3D      O      0.257530000000     0.935570000000     0.169080000000     0          
C1ED     C      0.230460000000     0.846710000000     0.057460000000     0          
C2ED     C      0.222140000000     0.876640000000     0.079210000000     0          
C3ED     C      0.194100000000     0.896900000000     0.077600000000     0          
H1ED     H      0.176800000000     0.894300000000     0.061500000000     0          
O1ED     O      0.209180000000     0.839480000000     0.034300000000     0          
O3ED     O      0.257530000000     0.830920000000     0.064430000000     0          
Zr1UB    Zr     0.218236000000     0.718236000000     0.045306000000     0          
O2UB     O      0.271250000000     0.728750000000     0.043800000000     0          
O4UB     O      0.223600000000     0.723600000000     0.100530000000     0          
O5UB     O      0.178830000000     0.678830000000     0.043300000000     0          
O6UB     O      0.196500000000     0.739940000000     0.000000000000     0          
Zr1H     Zr     0.045306000000     0.718236000000     0.218236000000     0          
Zr1L     Zr     0.218236000000     0.718236000000     0.954694000000     0          
Zr1CA    Zr     0.281764000000     0.954694000000     0.218236000000     0          
Zr1GC    Zr     0.281764000000     0.781764000000     0.954694000000     0          
Zr2UB    Zr     0.294669000000     0.705331000000     0.000000000000     0          
O1L      O      0.209180000000     0.839480000000     0.965700000000     0          
O1SC     O      0.160520000000     0.790820000000     0.965700000000     0          
O2L      O      0.228750000000     0.771250000000     0.956200000000     0          
O3UB     O      0.330920000000     0.757530000000     0.064430000000     0          
O3XF     O      0.242470000000     0.669080000000     0.064430000000     0          
O6L      O      0.239940000000     0.696500000000     0.000000000000     0          
O6GC     O      0.260060000000     0.803500000000     0.000000000000     0          
S1       S      0.248680000000     0.888180000000     0.888180000000     0          
C1       C      0.230460000000     0.846710000000     0.942540000000     0          
C2       C      0.222140000000     0.876640000000     0.920790000000     0          
C3       C      0.194100000000     0.896900000000     0.922400000000     0          
H1       H      0.176800000000     0.894300000000     0.938500000000     0          
O3       O      0.257530000000     0.830920000000     0.935570000000     0          
O4       O      0.223600000000     0.723600000000     0.899470000000     0          
O5       O      0.178830000000     0.678830000000     0.956700000000     0          
C1JD     C      0.230460000000     0.942540000000     0.846710000000     0          
C2JD     C      0.222140000000     0.920790000000     0.876640000000     0          
C3JD     C      0.194100000000     0.922400000000     0.896900000000     0          
H1JD     H      0.176800000000     0.938500000000     0.894300000000     0          
O1JD     O      0.209180000000     0.965700000000     0.839480000000     0          
O3JD     O      0.257530000000     0.935570000000     0.830920000000     0          
S1D      S      0.111820000000     0.751320000000     0.888180000000     0          
C1D      C      0.057460000000     0.769540000000     0.846710000000     0          
C2D      C      0.079210000000     0.777860000000     0.876640000000     0          
C3D      C      0.077600000000     0.805900000000     0.896900000000     0          
H1D      H      0.061500000000     0.823200000000     0.894300000000     0          
O1D      O      0.034300000000     0.790820000000     0.839480000000     0          
O3D      O      0.064430000000     0.742470000000     0.830920000000     0          
C1ED     C      0.153290000000     0.769540000000     0.942540000000     0          
C2ED     C      0.123360000000     0.777860000000     0.920790000000     0          
C3ED     C      0.103100000000     0.805900000000     0.922400000000     0          
H1ED     H      0.105700000000     0.823200000000     0.938500000000     0          
O3ED     O      0.169080000000     0.742470000000     0.935570000000     0          
O2UB     O      0.271250000000     0.728750000000     0.956200000000     0          
O4UB     O      0.276400000000     0.776400000000     0.899470000000     0          
O5UB     O      0.321170000000     0.821170000000     0.956700000000     0          
Zr1H     Zr     0.281764000000     0.954694000000     0.781764000000     0          
Zr1CA    Zr     0.045306000000     0.718236000000     0.781764000000     0          
Zr2D     Zr     0.000000000000     0.794669000000     0.794670000000     0          
Zr2H     Zr     0.205331000000     0.000000000000     0.794670000000     0          
O3UB     O      0.242470000000     0.669080000000     0.935570000000     0          
O3XF     O      0.330920000000     0.757530000000     0.935570000000     0          
S1       S      0.111820000000     0.248680000000     0.888180000000     0          
C1       C      0.153290000000     0.230460000000     0.942540000000     0          
C2       C      0.123360000000     0.222140000000     0.920790000000     0          
C3       C      0.103100000000     0.194100000000     0.922400000000     0          
H1       H      0.105700000000     0.176800000000     0.938500000000     0          
O3       O      0.169080000000     0.257530000000     0.935570000000     0          
O4       O      0.276400000000     0.223600000000     0.899470000000     0          
O5       O      0.321170000000     0.178830000000     0.956700000000     0          
C1JD     C      0.057460000000     0.230460000000     0.846710000000     0          
C2JD     C      0.079210000000     0.222140000000     0.876640000000     0          
C3JD     C      0.077600000000     0.194100000000     0.896900000000     0          
H1JD     H      0.061500000000     0.176800000000     0.894300000000     0          
O1JD     O      0.034300000000     0.209180000000     0.839480000000     0          
O3JD     O      0.064430000000     0.257530000000     0.830920000000     0          
S1D      S      0.248680000000     0.111820000000     0.888180000000     0          
C1D      C      0.230460000000     0.057460000000     0.846710000000     0          
C2D      C      0.222140000000     0.079210000000     0.876640000000     0          
C3D      C      0.194100000000     0.077600000000     0.896900000000     0          
H1D      H      0.176800000000     0.061500000000     0.894300000000     0          
O1D      O      0.209180000000     0.034300000000     0.839480000000     0          
O3D      O      0.257530000000     0.064430000000     0.830920000000     0          
C1ED     C      0.230460000000     0.153290000000     0.942540000000     0          
C2ED     C      0.222140000000     0.123360000000     0.920790000000     0          
C3ED     C      0.194100000000     0.103100000000     0.922400000000     0          
H1ED     H      0.176800000000     0.105700000000     0.938500000000     0          
O3ED     O      0.257530000000     0.169080000000     0.935570000000     0          
O2UB     O      0.271250000000     0.271250000000     0.956200000000     0          
O4UB     O      0.223600000000     0.276400000000     0.899470000000     0          
O5UB     O      0.178830000000     0.321170000000     0.956700000000     0          
Zr1H     Zr     0.045306000000     0.281764000000     0.781764000000     0          
Zr1CA    Zr     0.281764000000     0.045306000000     0.781764000000     0          
Zr2H     Zr     0.000000000000     0.205331000000     0.794670000000     0          
O3UB     O      0.330920000000     0.242470000000     0.935570000000     0          
O3XF     O      0.242470000000     0.330920000000     0.935570000000     0          
S1       S      0.751320000000     0.111820000000     0.888180000000     0          
C1       C      0.769540000000     0.153290000000     0.942540000000     0          
C2       C      0.777860000000     0.123360000000     0.920790000000     0          
C3       C      0.805900000000     0.103100000000     0.922400000000     0          
H1       H      0.823200000000     0.105700000000     0.938500000000     0          
O3       O      0.742470000000     0.169080000000     0.935570000000     0          
O4       O      0.776400000000     0.276400000000     0.899470000000     0          
O5       O      0.821170000000     0.321170000000     0.956700000000     0          
C1JD     C      0.769540000000     0.057460000000     0.846710000000     0          
C2JD     C      0.777860000000     0.079210000000     0.876640000000     0          
C3JD     C      0.805900000000     0.077600000000     0.896900000000     0          
H1JD     H      0.823200000000     0.061500000000     0.894300000000     0          
O1JD     O      0.790820000000     0.034300000000     0.839480000000     0          
O3JD     O      0.742470000000     0.064430000000     0.830920000000     0          
S1D      S      0.888180000000     0.248680000000     0.888180000000     0          
C1D      C      0.942540000000     0.230460000000     0.846710000000     0          
C2D      C      0.920790000000     0.222140000000     0.876640000000     0          
C3D      C      0.922400000000     0.194100000000     0.896900000000     0          
H1D      H      0.938500000000     0.176800000000     0.894300000000     0          
O1D      O      0.965700000000     0.209180000000     0.839480000000     0          
O3D      O      0.935570000000     0.257530000000     0.830920000000     0          
C1ED     C      0.846710000000     0.230460000000     0.942540000000     0          
C2ED     C      0.876640000000     0.222140000000     0.920790000000     0          
C3ED     C      0.896900000000     0.194100000000     0.922400000000     0          
H1ED     H      0.894300000000     0.176800000000     0.938500000000     0          
O3ED     O      0.830920000000     0.257530000000     0.935570000000     0          
O2UB     O      0.728750000000     0.271250000000     0.956200000000     0          
O4UB     O      0.723600000000     0.223600000000     0.899470000000     0          
O5UB     O      0.678830000000     0.178830000000     0.956700000000     0          
Zr1H     Zr     0.718236000000     0.045306000000     0.781764000000     0          
Zr1CA    Zr     0.954694000000     0.281764000000     0.781764000000     0          
Zr2H     Zr     0.794669000000     0.000000000000     0.794670000000     0          
O3UB     O      0.757530000000     0.330920000000     0.935570000000     0          
O3XF     O      0.669080000000     0.242470000000     0.935570000000     0          
S1       S      0.888180000000     0.751320000000     0.888180000000     0          
C1       C      0.846710000000     0.769540000000     0.942540000000     0          
C2       C      0.876640000000     0.777860000000     0.920790000000     0          
C3       C      0.896900000000     0.805900000000     0.922400000000     0          
H1       H      0.894300000000     0.823200000000     0.938500000000     0          
O3       O      0.830920000000     0.742470000000     0.935570000000     0          
O4       O      0.723600000000     0.776400000000     0.899470000000     0          
O5       O      0.678830000000     0.821170000000     0.956700000000     0          
C1JD     C      0.942540000000     0.769540000000     0.846710000000     0          
C2JD     C      0.920790000000     0.777860000000     0.876640000000     0          
C3JD     C      0.922400000000     0.805900000000     0.896900000000     0          
H1JD     H      0.938500000000     0.823200000000     0.894300000000     0          
O1JD     O      0.965700000000     0.790820000000     0.839480000000     0          
O3JD     O      0.935570000000     0.742470000000     0.830920000000     0          
S1D      S      0.751320000000     0.888180000000     0.888180000000     0          
C1D      C      0.769540000000     0.942540000000     0.846710000000     0          
C2D      C      0.777860000000     0.920790000000     0.876640000000     0          
C3D      C      0.805900000000     0.922400000000     0.896900000000     0          
H1D      H      0.823200000000     0.938500000000     0.894300000000     0          
O1D      O      0.790820000000     0.965700000000     0.839480000000     0          
O3D      O      0.742470000000     0.935570000000     0.830920000000     0          
C1ED     C      0.769540000000     0.846710000000     0.942540000000     0          
C2ED     C      0.777860000000     0.876640000000     0.920790000000     0          
C3ED     C      0.805900000000     0.896900000000     0.922400000000     0          
H1ED     H      0.823200000000     0.894300000000     0.938500000000     0          
O3ED     O      0.742470000000     0.830920000000     0.935570000000     0          
O2UB     O      0.728750000000     0.728750000000     0.956200000000     0          
O4UB     O      0.776400000000     0.723600000000     0.899470000000     0          
O5UB     O      0.821170000000     0.678830000000     0.956700000000     0          
Zr1H     Zr     0.954694000000     0.718236000000     0.781764000000     0          
Zr1CA    Zr     0.718236000000     0.954694000000     0.781764000000     0          
O3UB     O      0.669080000000     0.757530000000     0.935570000000     0          
O3XF     O      0.757530000000     0.669080000000     0.935570000000     0          
Zr1      Zr     0.045306000000     0.218236000000     0.281764000000     0          
O2       O      0.043800000000     0.228750000000     0.228750000000     0          
O4       O      0.100530000000     0.223600000000     0.276400000000     0          
O5       O      0.043300000000     0.178830000000     0.321170000000     0          
O6       O      0.000000000000     0.239940000000     0.303500000000     0          
S1D      S      0.111820000000     0.111820000000     0.248680000000     0          
C1D      C      0.153290000000     0.057460000000     0.230460000000     0          
C2D      C      0.123360000000     0.079210000000     0.222140000000     0          
C3D      C      0.103100000000     0.077600000000     0.194100000000     0          
H1D      H      0.105700000000     0.061500000000     0.176800000000     0          
O1D      O      0.160520000000     0.034300000000     0.209180000000     0          
O3D      O      0.169080000000     0.064430000000     0.257530000000     0          
C1ED     C      0.057460000000     0.153290000000     0.230460000000     0          
C2ED     C      0.079210000000     0.123360000000     0.222140000000     0          
C3ED     C      0.077600000000     0.103100000000     0.194100000000     0          
H1ED     H      0.061500000000     0.105700000000     0.176800000000     0          
O1ED     O      0.034300000000     0.160520000000     0.209180000000     0          
O3ED     O      0.064430000000     0.169080000000     0.257530000000     0          
O2UB     O      0.043800000000     0.271250000000     0.271250000000     0          
O4UB     O      0.100530000000     0.276400000000     0.223600000000     0          
O5UB     O      0.043300000000     0.321170000000     0.178830000000     0          
O6UB     O      0.000000000000     0.260060000000     0.196500000000     0          
Zr1CA    Zr     0.218236000000     0.045306000000     0.281764000000     0          
Zr1GC    Zr     0.954694000000     0.218236000000     0.281764000000     0          
Zr2UB    Zr     0.000000000000     0.294669000000     0.294669000000     0          
O1L      O      0.965700000000     0.160520000000     0.209180000000     0          
O2L      O      0.956200000000     0.228750000000     0.228750000000     0          
O3UB     O      0.064430000000     0.242470000000     0.330920000000     0          
O3XF     O      0.064430000000     0.330920000000     0.242470000000     0          
O6L      O      0.000000000000     0.303500000000     0.239940000000     0          
O6GC     O      0.000000000000     0.196500000000     0.260060000000     0          
Zr1      Zr     0.781764000000     0.045306000000     0.281764000000     0          
O2       O      0.771250000000     0.043800000000     0.228750000000     0          
O4       O      0.776400000000     0.100530000000     0.276400000000     0          
O5       O      0.821170000000     0.043300000000     0.321170000000     0          
O6       O      0.760060000000     0.000000000000     0.303500000000     0          
S1D      S      0.888180000000     0.111820000000     0.248680000000     0          
C1D      C      0.942540000000     0.153290000000     0.230460000000     0          
C2D      C      0.920790000000     0.123360000000     0.222140000000     0          
C3D      C      0.922400000000     0.103100000000     0.194100000000     0          
H1D      H      0.938500000000     0.105700000000     0.176800000000     0          
O3D      O      0.935570000000     0.169080000000     0.257530000000     0          
C1ED     C      0.846710000000     0.057460000000     0.230460000000     0          
C2ED     C      0.876640000000     0.079210000000     0.222140000000     0          
C3ED     C      0.896900000000     0.077600000000     0.194100000000     0          
H1ED     H      0.894300000000     0.061500000000     0.176800000000     0          
O1ED     O      0.839480000000     0.034300000000     0.209180000000     0          
O3ED     O      0.830920000000     0.064430000000     0.257530000000     0          
O2UB     O      0.728750000000     0.043800000000     0.271250000000     0          
O4UB     O      0.723600000000     0.100530000000     0.223600000000     0          
O5UB     O      0.678830000000     0.043300000000     0.178830000000     0          
O6UB     O      0.739940000000     0.000000000000     0.196500000000     0          
Zr1GC    Zr     0.781764000000     0.954694000000     0.281764000000     0          
Zr2UB    Zr     0.705331000000     0.000000000000     0.294669000000     0          
O1L      O      0.839480000000     0.965700000000     0.209180000000     0          
O2L      O      0.771250000000     0.956200000000     0.228750000000     0          
O3UB     O      0.757530000000     0.064430000000     0.330920000000     0          
O3XF     O      0.669080000000     0.064430000000     0.242470000000     0          
O6L      O      0.696500000000     0.000000000000     0.239940000000     0          
O6GC     O      0.803500000000     0.000000000000     0.260060000000     0          
Zr1      Zr     0.954694000000     0.781764000000     0.281764000000     0          
O2       O      0.956200000000     0.771250000000     0.228750000000     0          
O4       O      0.899470000000     0.776400000000     0.276400000000     0          
O5       O      0.956700000000     0.821170000000     0.321170000000     0          
O6       O      0.000000000000     0.760060000000     0.303500000000     0          
S1D      S      0.888180000000     0.888180000000     0.248680000000     0          
C1D      C      0.846710000000     0.942540000000     0.230460000000     0          
C2D      C      0.876640000000     0.920790000000     0.222140000000     0          
C3D      C      0.896900000000     0.922400000000     0.194100000000     0          
H1D      H      0.894300000000     0.938500000000     0.176800000000     0          
O3D      O      0.830920000000     0.935570000000     0.257530000000     0          
C1ED     C      0.942540000000     0.846710000000     0.230460000000     0          
C2ED     C      0.920790000000     0.876640000000     0.222140000000     0          
C3ED     C      0.922400000000     0.896900000000     0.194100000000     0          
H1ED     H      0.938500000000     0.894300000000     0.176800000000     0          
O1ED     O      0.965700000000     0.839480000000     0.209180000000     0          
O3ED     O      0.935570000000     0.830920000000     0.257530000000     0          
O2UB     O      0.956200000000     0.728750000000     0.271250000000     0          
O4UB     O      0.899470000000     0.723600000000     0.223600000000     0          
O5UB     O      0.956700000000     0.678830000000     0.178830000000     0          
O6UB     O      0.000000000000     0.739940000000     0.196500000000     0          
Zr1GC    Zr     0.045306000000     0.781764000000     0.281764000000     0          
Zr2UB    Zr     0.000000000000     0.705331000000     0.294669000000     0          
O1L      O      0.034300000000     0.839480000000     0.209180000000     0          
O2L      O      0.043800000000     0.771250000000     0.228750000000     0          
O3UB     O      0.935570000000     0.757530000000     0.330920000000     0          
O3XF     O      0.935570000000     0.669080000000     0.242470000000     0          
O6L      O      0.000000000000     0.696500000000     0.239940000000     0          
O6GC     O      0.000000000000     0.803500000000     0.260060000000     0          
Zr1      Zr     0.218236000000     0.954694000000     0.281764000000     0          
O2       O      0.228750000000     0.956200000000     0.228750000000     0          
O4       O      0.223600000000     0.899470000000     0.276400000000     0          
O5       O      0.178830000000     0.956700000000     0.321170000000     0          
O6       O      0.239940000000     0.000000000000     0.303500000000     0          
S1D      S      0.111820000000     0.888180000000     0.248680000000     0          
C1D      C      0.057460000000     0.846710000000     0.230460000000     0          
C2D      C      0.079210000000     0.876640000000     0.222140000000     0          
C3D      C      0.077600000000     0.896900000000     0.194100000000     0          
H1D      H      0.061500000000     0.894300000000     0.176800000000     0          
O3D      O      0.064430000000     0.830920000000     0.257530000000     0          
C1ED     C      0.153290000000     0.942540000000     0.230460000000     0          
C2ED     C      0.123360000000     0.920790000000     0.222140000000     0          
C3ED     C      0.103100000000     0.922400000000     0.194100000000     0          
H1ED     H      0.105700000000     0.938500000000     0.176800000000     0          
O1ED     O      0.160520000000     0.965700000000     0.209180000000     0          
O3ED     O      0.169080000000     0.935570000000     0.257530000000     0          
O2UB     O      0.271250000000     0.956200000000     0.271250000000     0          
O4UB     O      0.276400000000     0.899470000000     0.223600000000     0          
O5UB     O      0.321170000000     0.956700000000     0.178830000000     0          
O6UB     O      0.260060000000     0.000000000000     0.196500000000     0          
Zr2UB    Zr     0.294669000000     0.000000000000     0.294669000000     0          
O2L      O      0.228750000000     0.043800000000     0.228750000000     0          
O3UB     O      0.242470000000     0.935570000000     0.330920000000     0          
O3XF     O      0.330920000000     0.935570000000     0.242470000000     0          
O6L      O      0.303500000000     0.000000000000     0.239940000000     0          
O6GC     O      0.196500000000     0.000000000000     0.260060000000     0          
Zr1      Zr     0.045306000000     0.781764000000     0.718236000000     0          
O2       O      0.043800000000     0.771250000000     0.771250000000     0          
O4       O      0.100530000000     0.776400000000     0.723600000000     0          
O5       O      0.043300000000     0.821170000000     0.678830000000     0          
O6       O      0.000000000000     0.760060000000     0.696500000000     0          
S1D      S      0.111820000000     0.888180000000     0.751320000000     0          
C1D      C      0.153290000000     0.942540000000     0.769540000000     0          
C2D      C      0.123360000000     0.920790000000     0.777860000000     0          
C3D      C      0.103100000000     0.922400000000     0.805900000000     0          
H1D      H      0.105700000000     0.938500000000     0.823200000000     0          
O1D      O      0.160520000000     0.965700000000     0.790820000000     0          
O3D      O      0.169080000000     0.935570000000     0.742470000000     0          
C1ED     C      0.057460000000     0.846710000000     0.769540000000     0          
C2ED     C      0.079210000000     0.876640000000     0.777860000000     0          
C3ED     C      0.077600000000     0.896900000000     0.805900000000     0          
H1ED     H      0.061500000000     0.894300000000     0.823200000000     0          
O1ED     O      0.034300000000     0.839480000000     0.790820000000     0          
O3ED     O      0.064430000000     0.830920000000     0.742470000000     0          
O2UB     O      0.043800000000     0.728750000000     0.728750000000     0          
O4UB     O      0.100530000000     0.723600000000     0.776400000000     0          
O5UB     O      0.043300000000     0.678830000000     0.821170000000     0          
O6UB     O      0.000000000000     0.739940000000     0.803500000000     0          
Zr1CA    Zr     0.218236000000     0.954694000000     0.718236000000     0          
Zr1GC    Zr     0.954694000000     0.781764000000     0.718236000000     0          
Zr2UB    Zr     0.000000000000     0.705331000000     0.705331000000     0          
O1L      O      0.965700000000     0.839480000000     0.790820000000     0          
O2L      O      0.956200000000     0.771250000000     0.771250000000     0          
O3UB     O      0.064430000000     0.757530000000     0.669080000000     0          
O3XF     O      0.064430000000     0.669080000000     0.757530000000     0          
O6L      O      0.000000000000     0.696500000000     0.760060000000     0          
O6GC     O      0.000000000000     0.803500000000     0.739940000000     0          
Zr1      Zr     0.218236000000     0.045306000000     0.718236000000     0          
O2       O      0.228750000000     0.043800000000     0.771250000000     0          
O4       O      0.223600000000     0.100530000000     0.723600000000     0          
O5       O      0.178830000000     0.043300000000     0.678830000000     0          
O6       O      0.239940000000     0.000000000000     0.696500000000     0          
S1D      S      0.111820000000     0.111820000000     0.751320000000     0          
C1D      C      0.057460000000     0.153290000000     0.769540000000     0          
C2D      C      0.079210000000     0.123360000000     0.777860000000     0          
C3D      C      0.077600000000     0.103100000000     0.805900000000     0          
H1D      H      0.061500000000     0.105700000000     0.823200000000     0          
O1D      O      0.034300000000     0.160520000000     0.790820000000     0          
O3D      O      0.064430000000     0.169080000000     0.742470000000     0          
C1ED     C      0.153290000000     0.057460000000     0.769540000000     0          
C2ED     C      0.123360000000     0.079210000000     0.777860000000     0          
C3ED     C      0.103100000000     0.077600000000     0.805900000000     0          
H1ED     H      0.105700000000     0.061500000000     0.823200000000     0          
O1ED     O      0.160520000000     0.034300000000     0.790820000000     0          
O3ED     O      0.169080000000     0.064430000000     0.742470000000     0          
O2UB     O      0.271250000000     0.043800000000     0.728750000000     0          
O4UB     O      0.276400000000     0.100530000000     0.776400000000     0          
O5UB     O      0.321170000000     0.043300000000     0.821170000000     0          
O6UB     O      0.260060000000     0.000000000000     0.803500000000     0          
Zr1CA    Zr     0.045306000000     0.218236000000     0.718236000000     0          
Zr2UB    Zr     0.294669000000     0.000000000000     0.705331000000     0          
O2L      O      0.228750000000     0.956200000000     0.771250000000     0          
O3UB     O      0.242470000000     0.064430000000     0.669080000000     0          
O3XF     O      0.330920000000     0.064430000000     0.757530000000     0          
O6L      O      0.303500000000     0.000000000000     0.760060000000     0          
O6GC     O      0.196500000000     0.000000000000     0.739940000000     0          
Zr1      Zr     0.954694000000     0.218236000000     0.718236000000     0          
O2       O      0.956200000000     0.228750000000     0.771250000000     0          
O4       O      0.899470000000     0.223600000000     0.723600000000     0          
O5       O      0.956700000000     0.178830000000     0.678830000000     0          
O6       O      0.000000000000     0.239940000000     0.696500000000     0          
S1D      S      0.888180000000     0.111820000000     0.751320000000     0          
C1D      C      0.846710000000     0.057460000000     0.769540000000     0          
C2D      C      0.876640000000     0.079210000000     0.777860000000     0          
C3D      C      0.896900000000     0.077600000000     0.805900000000     0          
H1D      H      0.894300000000     0.061500000000     0.823200000000     0          
O1D      O      0.839480000000     0.034300000000     0.790820000000     0          
O3D      O      0.830920000000     0.064430000000     0.742470000000     0          
C1ED     C      0.942540000000     0.153290000000     0.769540000000     0          
C2ED     C      0.920790000000     0.123360000000     0.777860000000     0          
C3ED     C      0.922400000000     0.103100000000     0.805900000000     0          
H1ED     H      0.938500000000     0.105700000000     0.823200000000     0          
O1ED     O      0.965700000000     0.160520000000     0.790820000000     0          
O3ED     O      0.935570000000     0.169080000000     0.742470000000     0          
O2UB     O      0.956200000000     0.271250000000     0.728750000000     0          
O4UB     O      0.899470000000     0.276400000000     0.776400000000     0          
O5UB     O      0.956700000000     0.321170000000     0.821170000000     0          
O6UB     O      0.000000000000     0.260060000000     0.803500000000     0          
Zr1CA    Zr     0.781764000000     0.045306000000     0.718236000000     0          
Zr2UB    Zr     0.000000000000     0.294669000000     0.705331000000     0          
O2L      O      0.043800000000     0.228750000000     0.771250000000     0          
O3UB     O      0.935570000000     0.242470000000     0.669080000000     0          
O3XF     O      0.935570000000     0.330920000000     0.757530000000     0          
O6L      O      0.000000000000     0.303500000000     0.760060000000     0          
O6GC     O      0.000000000000     0.196500000000     0.739940000000     0          
Zr1      Zr     0.781764000000     0.954694000000     0.718236000000     0          
O2       O      0.771250000000     0.956200000000     0.771250000000     0          
O4       O      0.776400000000     0.899470000000     0.723600000000     0          
O5       O      0.821170000000     0.956700000000     0.678830000000     0          
O6       O      0.760060000000     0.000000000000     0.696500000000     0          
S1D      S      0.888180000000     0.888180000000     0.751320000000     0          
C1D      C      0.942540000000     0.846710000000     0.769540000000     0          
C2D      C      0.920790000000     0.876640000000     0.777860000000     0          
C3D      C      0.922400000000     0.896900000000     0.805900000000     0          
H1D      H      0.938500000000     0.894300000000     0.823200000000     0          
O3D      O      0.935570000000     0.830920000000     0.742470000000     0          
C1ED     C      0.846710000000     0.942540000000     0.769540000000     0          
C2ED     C      0.876640000000     0.920790000000     0.777860000000     0          
C3ED     C      0.896900000000     0.922400000000     0.805900000000     0          
H1ED     H      0.894300000000     0.938500000000     0.823200000000     0          
O1ED     O      0.839480000000     0.965700000000     0.790820000000     0          
O3ED     O      0.830920000000     0.935570000000     0.742470000000     0          
O2UB     O      0.728750000000     0.956200000000     0.728750000000     0          
O4UB     O      0.723600000000     0.899470000000     0.776400000000     0          
O5UB     O      0.678830000000     0.956700000000     0.821170000000     0          
O6UB     O      0.739940000000     0.000000000000     0.803500000000     0          
Zr2UB    Zr     0.705331000000     0.000000000000     0.705331000000     0          
O2L      O      0.771250000000     0.043800000000     0.771250000000     0          
O3UB     O      0.757530000000     0.935570000000     0.669080000000     0          
O3XF     O      0.669080000000     0.935570000000     0.757530000000     0          
O6L      O      0.696500000000     0.000000000000     0.760060000000     0          
O6GC     O      0.803500000000     0.000000000000     0.739940000000     0          
O4       O      0.276400000000     0.100530000000     0.223600000000     0          
O5       O      0.321170000000     0.043300000000     0.178830000000     0          
O2UB     O      0.271250000000     0.043800000000     0.271250000000     0          
O4UB     O      0.223600000000     0.100530000000     0.276400000000     0          
O5UB     O      0.178830000000     0.043300000000     0.321170000000     0          
O3UB     O      0.330920000000     0.064430000000     0.242470000000     0          
O3XF     O      0.242470000000     0.064430000000     0.330920000000     0          
O4       O      0.276400000000     0.899470000000     0.776400000000     0          
O5       O      0.321170000000     0.956700000000     0.821170000000     0          
O2UB     O      0.271250000000     0.956200000000     0.728750000000     0          
O4UB     O      0.223600000000     0.899470000000     0.723600000000     0          
O5UB     O      0.178830000000     0.956700000000     0.678830000000     0          
O3UB     O      0.330920000000     0.935570000000     0.757530000000     0          
O3XF     O      0.242470000000     0.935570000000     0.669080000000     0          
O4       O      0.100530000000     0.276400000000     0.776400000000     0          
O5       O      0.043300000000     0.321170000000     0.821170000000     0          
O2UB     O      0.043800000000     0.271250000000     0.728750000000     0          
O4UB     O      0.100530000000     0.223600000000     0.723600000000     0          
O5UB     O      0.043300000000     0.178830000000     0.678830000000     0          
O3UB     O      0.064430000000     0.330920000000     0.757530000000     0          
O3XF     O      0.064430000000     0.242470000000     0.669080000000     0          
O4       O      0.723600000000     0.100530000000     0.776400000000     0          
O5       O      0.678830000000     0.043300000000     0.821170000000     0          
O2UB     O      0.728750000000     0.043800000000     0.728750000000     0          
O4UB     O      0.776400000000     0.100530000000     0.723600000000     0          
O5UB     O      0.821170000000     0.043300000000     0.678830000000     0          
O3UB     O      0.669080000000     0.064430000000     0.757530000000     0          
O3XF     O      0.757530000000     0.064430000000     0.669080000000     0          
O4       O      0.899470000000     0.723600000000     0.776400000000     0          
O5       O      0.956700000000     0.678830000000     0.821170000000     0          
O2UB     O      0.956200000000     0.728750000000     0.728750000000     0          
O4UB     O      0.899470000000     0.776400000000     0.723600000000     0          
O5UB     O      0.956700000000     0.821170000000     0.678830000000     0          
O3UB     O      0.935570000000     0.669080000000     0.757530000000     0          
O3XF     O      0.935570000000     0.757530000000     0.669080000000     0          
O4       O      0.723600000000     0.899470000000     0.223600000000     0          
O5       O      0.678830000000     0.956700000000     0.178830000000     0          
O2UB     O      0.728750000000     0.956200000000     0.271250000000     0          
O4UB     O      0.776400000000     0.899470000000     0.276400000000     0          
O5UB     O      0.821170000000     0.956700000000     0.321170000000     0          
O3UB     O      0.669080000000     0.935570000000     0.242470000000     0          
O3XF     O      0.757530000000     0.935570000000     0.330920000000     0          
O4       O      0.100530000000     0.723600000000     0.223600000000     0          
O5       O      0.043300000000     0.678830000000     0.178830000000     0          
O2UB     O      0.043800000000     0.728750000000     0.271250000000     0          
O4UB     O      0.100530000000     0.776400000000     0.276400000000     0          
O5UB     O      0.043300000000     0.821170000000     0.321170000000     0          
O3UB     O      0.064430000000     0.669080000000     0.242470000000     0          
O3XF     O      0.064430000000     0.757530000000     0.330920000000     0          
O4       O      0.899470000000     0.276400000000     0.223600000000     0          
O5       O      0.956700000000     0.321170000000     0.178830000000     0          
O2UB     O      0.956200000000     0.271250000000     0.271250000000     0          
O4UB     O      0.899470000000     0.223600000000     0.276400000000     0          
O5UB     O      0.956700000000     0.178830000000     0.321170000000     0          
O3UB     O      0.935570000000     0.330920000000     0.242470000000     0          
O3XF     O      0.935570000000     0.242470000000     0.330920000000     0          
Zr1      Zr     0.218236000000     0.781764000000     0.545306000000     0          
Zr2      Zr     0.205331000000     0.705331000000     0.500000000000     0          
S1       S      0.248680000000     0.611820000000     0.611820000000     0          
C1       C      0.230460000000     0.653290000000     0.557460000000     0          
C2       C      0.222140000000     0.623360000000     0.579210000000     0          
C3       C      0.194100000000     0.603100000000     0.577600000000     0          
H1       H      0.176800000000     0.605700000000     0.561500000000     0          
O1       O      0.209180000000     0.660520000000     0.534300000000     0          
O2       O      0.228750000000     0.728750000000     0.543800000000     0          
O3       O      0.257530000000     0.669080000000     0.564430000000     0          
O4       O      0.223600000000     0.776400000000     0.600530000000     0          
O5       O      0.178830000000     0.821170000000     0.543300000000     0          
O6       O      0.239940000000     0.803500000000     0.500000000000     0          
C1JD     C      0.230460000000     0.557460000000     0.653290000000     0          
C2JD     C      0.222140000000     0.579210000000     0.623360000000     0          
C3JD     C      0.194100000000     0.577600000000     0.603100000000     0          
H1JD     H      0.176800000000     0.561500000000     0.605700000000     0          
O1JD     O      0.209180000000     0.534300000000     0.660520000000     0          
O3JD     O      0.257530000000     0.564430000000     0.669080000000     0          
S1D      S      0.111820000000     0.748680000000     0.611820000000     0          
C1D      C      0.057460000000     0.730460000000     0.653290000000     0          
C2D      C      0.079210000000     0.722140000000     0.623360000000     0          
C3D      C      0.077600000000     0.694100000000     0.603100000000     0          
H1D      H      0.061500000000     0.676800000000     0.605700000000     0          
O1D      O      0.034300000000     0.709180000000     0.660520000000     0          
C1ED     C      0.153290000000     0.730460000000     0.557460000000     0          
C2ED     C      0.123360000000     0.722140000000     0.579210000000     0          
C3ED     C      0.103100000000     0.694100000000     0.577600000000     0          
H1ED     H      0.105700000000     0.676800000000     0.561500000000     0          
O1ED     O      0.160520000000     0.709180000000     0.534300000000     0          
O3ED     O      0.169080000000     0.757530000000     0.564430000000     0          
Zr1UB    Zr     0.281764000000     0.718236000000     0.545306000000     0          
O2UB     O      0.271250000000     0.771250000000     0.543800000000     0          
O4UB     O      0.276400000000     0.723600000000     0.600530000000     0          
O5UB     O      0.321170000000     0.678830000000     0.543300000000     0          
O6UB     O      0.260060000000     0.696500000000     0.500000000000     0          
Zr1H     Zr     0.281764000000     0.545306000000     0.718236000000     0          
Zr1L     Zr     0.281764000000     0.718236000000     0.454694000000     0          
Zr1GC    Zr     0.218236000000     0.781764000000     0.454694000000     0          
Zr2H     Zr     0.205331000000     0.500000000000     0.705330000000     0          
Zr2UB    Zr     0.294669000000     0.794669000000     0.500000000000     0          
O1L      O      0.160520000000     0.709180000000     0.465700000000     0          
O1SC     O      0.209180000000     0.660520000000     0.465700000000     0          
O2L      O      0.228750000000     0.728750000000     0.456200000000     0          
O3UB     O      0.242470000000     0.830920000000     0.564430000000     0          
O3XF     O      0.330920000000     0.742470000000     0.564430000000     0          
O6L      O      0.303500000000     0.739940000000     0.500000000000     0          
O6GC     O      0.196500000000     0.760060000000     0.500000000000     0          
Zr1      Zr     0.718236000000     0.718236000000     0.545306000000     0          
Zr2      Zr     0.794669000000     0.705331000000     0.500000000000     0          
S1       S      0.888180000000     0.748680000000     0.611820000000     0          
C1       C      0.846710000000     0.730460000000     0.557460000000     0          
C2       C      0.876640000000     0.722140000000     0.579210000000     0          
C3       C      0.896900000000     0.694100000000     0.577600000000     0          
H1       H      0.894300000000     0.676800000000     0.561500000000     0          
O1       O      0.839480000000     0.709180000000     0.534300000000     0          
O2       O      0.771250000000     0.728750000000     0.543800000000     0          
O3       O      0.830920000000     0.757530000000     0.564430000000     0          
O4       O      0.723600000000     0.723600000000     0.600530000000     0          
O5       O      0.678830000000     0.678830000000     0.543300000000     0          
O6       O      0.696500000000     0.739940000000     0.500000000000     0          
C1JD     C      0.942540000000     0.730460000000     0.653290000000     0          
C2JD     C      0.920790000000     0.722140000000     0.623360000000     0          
C3JD     C      0.922400000000     0.694100000000     0.603100000000     0          
H1JD     H      0.938500000000     0.676800000000     0.605700000000     0          
O1JD     O      0.965700000000     0.709180000000     0.660520000000     0          
S1D      S      0.751320000000     0.611820000000     0.611820000000     0          
C1D      C      0.769540000000     0.557460000000     0.653290000000     0          
C2D      C      0.777860000000     0.579210000000     0.623360000000     0          
C3D      C      0.805900000000     0.577600000000     0.603100000000     0          
H1D      H      0.823200000000     0.561500000000     0.605700000000     0          
O1D      O      0.790820000000     0.534300000000     0.660520000000     0          
O3D      O      0.742470000000     0.564430000000     0.669080000000     0          
C1ED     C      0.769540000000     0.653290000000     0.557460000000     0          
C2ED     C      0.777860000000     0.623360000000     0.579210000000     0          
C3ED     C      0.805900000000     0.603100000000     0.577600000000     0          
H1ED     H      0.823200000000     0.605700000000     0.561500000000     0          
O1ED     O      0.790820000000     0.660520000000     0.534300000000     0          
O3ED     O      0.742470000000     0.669080000000     0.564430000000     0          
Zr1UB    Zr     0.781764000000     0.781764000000     0.545306000000     0          
O2UB     O      0.728750000000     0.771250000000     0.543800000000     0          
O4UB     O      0.776400000000     0.776400000000     0.600530000000     0          
O5UB     O      0.821170000000     0.821170000000     0.543300000000     0          
O6UB     O      0.803500000000     0.760060000000     0.500000000000     0          
Zr1L     Zr     0.781764000000     0.781764000000     0.454694000000     0          
Zr1CA    Zr     0.718236000000     0.545306000000     0.718236000000     0          
Zr1GC    Zr     0.718236000000     0.718236000000     0.454694000000     0          
Zr2D     Zr     0.794669000000     0.500000000000     0.705330000000     0          
Zr2UB    Zr     0.705331000000     0.794669000000     0.500000000000     0          
O1L      O      0.790820000000     0.660520000000     0.465700000000     0          
O1SC     O      0.839480000000     0.709180000000     0.465700000000     0          
O2L      O      0.771250000000     0.728750000000     0.456200000000     0          
O3UB     O      0.669080000000     0.742470000000     0.564430000000     0          
O3XF     O      0.757530000000     0.830920000000     0.564430000000     0          
O6L      O      0.760060000000     0.803500000000     0.500000000000     0          
O6GC     O      0.739940000000     0.696500000000     0.500000000000     0          
Zr1      Zr     0.781764000000     0.218236000000     0.545306000000     0          
Zr2      Zr     0.794669000000     0.294669000000     0.500000000000     0          
S1       S      0.751320000000     0.388180000000     0.611820000000     0          
C1       C      0.769540000000     0.346710000000     0.557460000000     0          
C2       C      0.777860000000     0.376640000000     0.579210000000     0          
C3       C      0.805900000000     0.396900000000     0.577600000000     0          
H1       H      0.823200000000     0.394300000000     0.561500000000     0          
O1       O      0.790820000000     0.339480000000     0.534300000000     0          
O2       O      0.771250000000     0.271250000000     0.543800000000     0          
O3       O      0.742470000000     0.330920000000     0.564430000000     0          
O4       O      0.776400000000     0.223600000000     0.600530000000     0          
O5       O      0.821170000000     0.178830000000     0.543300000000     0          
O6       O      0.760060000000     0.196500000000     0.500000000000     0          
C1JD     C      0.769540000000     0.442540000000     0.653290000000     0          
C2JD     C      0.777860000000     0.420790000000     0.623360000000     0          
C3JD     C      0.805900000000     0.422400000000     0.603100000000     0          
H1JD     H      0.823200000000     0.438500000000     0.605700000000     0          
O1JD     O      0.790820000000     0.465700000000     0.660520000000     0          
O3JD     O      0.742470000000     0.435570000000     0.669080000000     0          
S1D      S      0.888180000000     0.251320000000     0.611820000000     0          
C1D      C      0.942540000000     0.269540000000     0.653290000000     0          
C2D      C      0.920790000000     0.277860000000     0.623360000000     0          
C3D      C      0.922400000000     0.305900000000     0.603100000000     0          
H1D      H      0.938500000000     0.323200000000     0.605700000000     0          
O1D      O      0.965700000000     0.290820000000     0.660520000000     0          
C1ED     C      0.846710000000     0.269540000000     0.557460000000     0          
C2ED     C      0.876640000000     0.277860000000     0.579210000000     0          
C3ED     C      0.896900000000     0.305900000000     0.577600000000     0          
H1ED     H      0.894300000000     0.323200000000     0.561500000000     0          
O1ED     O      0.839480000000     0.290820000000     0.534300000000     0          
O3ED     O      0.830920000000     0.242470000000     0.564430000000     0          
Zr1UB    Zr     0.718236000000     0.281764000000     0.545306000000     0          
O2UB     O      0.728750000000     0.228750000000     0.543800000000     0          
O4UB     O      0.723600000000     0.276400000000     0.600530000000     0          
O5UB     O      0.678830000000     0.321170000000     0.543300000000     0          
O6UB     O      0.739940000000     0.303500000000     0.500000000000     0          
Zr1H     Zr     0.718236000000     0.454694000000     0.718236000000     0          
Zr1L     Zr     0.718236000000     0.281764000000     0.454694000000     0          
Zr1GC    Zr     0.781764000000     0.218236000000     0.454694000000     0          
Zr2UB    Zr     0.705331000000     0.205331000000     0.500000000000     0          
O1L      O      0.839480000000     0.290820000000     0.465700000000     0          
O1SC     O      0.790820000000     0.339480000000     0.465700000000     0          
O2L      O      0.771250000000     0.271250000000     0.456200000000     0          
O3UB     O      0.757530000000     0.169080000000     0.564430000000     0          
O3XF     O      0.669080000000     0.257530000000     0.564430000000     0          
O6L      O      0.696500000000     0.260060000000     0.500000000000     0          
O6GC     O      0.803500000000     0.239940000000     0.500000000000     0          
Zr1      Zr     0.281764000000     0.281764000000     0.545306000000     0          
Zr2      Zr     0.205331000000     0.294669000000     0.500000000000     0          
S1       S      0.111820000000     0.251320000000     0.611820000000     0          
C1       C      0.153290000000     0.269540000000     0.557460000000     0          
C2       C      0.123360000000     0.277860000000     0.579210000000     0          
C3       C      0.103100000000     0.305900000000     0.577600000000     0          
H1       H      0.105700000000     0.323200000000     0.561500000000     0          
O1       O      0.160520000000     0.290820000000     0.534300000000     0          
O2       O      0.228750000000     0.271250000000     0.543800000000     0          
O3       O      0.169080000000     0.242470000000     0.564430000000     0          
O4       O      0.276400000000     0.276400000000     0.600530000000     0          
O5       O      0.321170000000     0.321170000000     0.543300000000     0          
O6       O      0.303500000000     0.260060000000     0.500000000000     0          
C1JD     C      0.057460000000     0.269540000000     0.653290000000     0          
C2JD     C      0.079210000000     0.277860000000     0.623360000000     0          
C3JD     C      0.077600000000     0.305900000000     0.603100000000     0          
H1JD     H      0.061500000000     0.323200000000     0.605700000000     0          
O1JD     O      0.034300000000     0.290820000000     0.660520000000     0          
S1D      S      0.248680000000     0.388180000000     0.611820000000     0          
C1D      C      0.230460000000     0.442540000000     0.653290000000     0          
C2D      C      0.222140000000     0.420790000000     0.623360000000     0          
C3D      C      0.194100000000     0.422400000000     0.603100000000     0          
H1D      H      0.176800000000     0.438500000000     0.605700000000     0          
O1D      O      0.209180000000     0.465700000000     0.660520000000     0          
O3D      O      0.257530000000     0.435570000000     0.669080000000     0          
C1ED     C      0.230460000000     0.346710000000     0.557460000000     0          
C2ED     C      0.222140000000     0.376640000000     0.579210000000     0          
C3ED     C      0.194100000000     0.396900000000     0.577600000000     0          
H1ED     H      0.176800000000     0.394300000000     0.561500000000     0          
O1ED     O      0.209180000000     0.339480000000     0.534300000000     0          
O3ED     O      0.257530000000     0.330920000000     0.564430000000     0          
Zr1UB    Zr     0.218236000000     0.218236000000     0.545306000000     0          
O2UB     O      0.271250000000     0.228750000000     0.543800000000     0          
O4UB     O      0.223600000000     0.223600000000     0.600530000000     0          
O5UB     O      0.178830000000     0.178830000000     0.543300000000     0          
O6UB     O      0.196500000000     0.239940000000     0.500000000000     0          
Zr1L     Zr     0.218236000000     0.218236000000     0.454694000000     0          
Zr1CA    Zr     0.281764000000     0.454694000000     0.718236000000     0          
Zr1GC    Zr     0.281764000000     0.281764000000     0.454694000000     0          
Zr2UB    Zr     0.294669000000     0.205331000000     0.500000000000     0          
O1L      O      0.209180000000     0.339480000000     0.465700000000     0          
O1SC     O      0.160520000000     0.290820000000     0.465700000000     0          
O2L      O      0.228750000000     0.271250000000     0.456200000000     0          
O3UB     O      0.330920000000     0.257530000000     0.564430000000     0          
O3XF     O      0.242470000000     0.169080000000     0.564430000000     0          
O6L      O      0.239940000000     0.196500000000     0.500000000000     0          
O6GC     O      0.260060000000     0.303500000000     0.500000000000     0          
S1       S      0.248680000000     0.388180000000     0.388180000000     0          
C1       C      0.230460000000     0.346710000000     0.442540000000     0          
C2       C      0.222140000000     0.376640000000     0.420790000000     0          
C3       C      0.194100000000     0.396900000000     0.422400000000     0          
H1       H      0.176800000000     0.394300000000     0.438500000000     0          
O3       O      0.257530000000     0.330920000000     0.435570000000     0          
O4       O      0.223600000000     0.223600000000     0.399470000000     0          
O5       O      0.178830000000     0.178830000000     0.456700000000     0          
C1JD     C      0.230460000000     0.442540000000     0.346710000000     0          
C2JD     C      0.222140000000     0.420790000000     0.376640000000     0          
C3JD     C      0.194100000000     0.422400000000     0.396900000000     0          
H1JD     H      0.176800000000     0.438500000000     0.394300000000     0          
O1JD     O      0.209180000000     0.465700000000     0.339480000000     0          
O3JD     O      0.257530000000     0.435570000000     0.330920000000     0          
S1D      S      0.111820000000     0.251320000000     0.388180000000     0          
C1D      C      0.057460000000     0.269540000000     0.346710000000     0          
C2D      C      0.079210000000     0.277860000000     0.376640000000     0          
C3D      C      0.077600000000     0.305900000000     0.396900000000     0          
H1D      H      0.061500000000     0.323200000000     0.394300000000     0          
O1D      O      0.034300000000     0.290820000000     0.339480000000     0          
C1ED     C      0.153290000000     0.269540000000     0.442540000000     0          
C2ED     C      0.123360000000     0.277860000000     0.420790000000     0          
C3ED     C      0.103100000000     0.305900000000     0.422400000000     0          
H1ED     H      0.105700000000     0.323200000000     0.438500000000     0          
O3ED     O      0.169080000000     0.242470000000     0.435570000000     0          
O2UB     O      0.271250000000     0.228750000000     0.456200000000     0          
O4UB     O      0.276400000000     0.276400000000     0.399470000000     0          
O5UB     O      0.321170000000     0.321170000000     0.456700000000     0          
Zr1H     Zr     0.281764000000     0.454694000000     0.281764000000     0          
Zr2H     Zr     0.205331000000     0.500000000000     0.294670000000     0          
O3UB     O      0.242470000000     0.169080000000     0.435570000000     0          
O3XF     O      0.330920000000     0.257530000000     0.435570000000     0          
S1       S      0.111820000000     0.748680000000     0.388180000000     0          
C1       C      0.153290000000     0.730460000000     0.442540000000     0          
C2       C      0.123360000000     0.722140000000     0.420790000000     0          
C3       C      0.103100000000     0.694100000000     0.422400000000     0          
H1       H      0.105700000000     0.676800000000     0.438500000000     0          
O3       O      0.169080000000     0.757530000000     0.435570000000     0          
O4       O      0.276400000000     0.723600000000     0.399470000000     0          
O5       O      0.321170000000     0.678830000000     0.456700000000     0          
C1JD     C      0.057460000000     0.730460000000     0.346710000000     0          
C2JD     C      0.079210000000     0.722140000000     0.376640000000     0          
C3JD     C      0.077600000000     0.694100000000     0.396900000000     0          
H1JD     H      0.061500000000     0.676800000000     0.394300000000     0          
O1JD     O      0.034300000000     0.709180000000     0.339480000000     0          
S1D      S      0.248680000000     0.611820000000     0.388180000000     0          
C1D      C      0.230460000000     0.557460000000     0.346710000000     0          
C2D      C      0.222140000000     0.579210000000     0.376640000000     0          
C3D      C      0.194100000000     0.577600000000     0.396900000000     0          
H1D      H      0.176800000000     0.561500000000     0.394300000000     0          
O1D      O      0.209180000000     0.534300000000     0.339480000000     0          
O3D      O      0.257530000000     0.564430000000     0.330920000000     0          
C1ED     C      0.230460000000     0.653290000000     0.442540000000     0          
C2ED     C      0.222140000000     0.623360000000     0.420790000000     0          
C3ED     C      0.194100000000     0.603100000000     0.422400000000     0          
H1ED     H      0.176800000000     0.605700000000     0.438500000000     0          
O3ED     O      0.257530000000     0.669080000000     0.435570000000     0          
O2UB     O      0.271250000000     0.771250000000     0.456200000000     0          
O4UB     O      0.223600000000     0.776400000000     0.399470000000     0          
O5UB     O      0.178830000000     0.821170000000     0.456700000000     0          
Zr1CA    Zr     0.281764000000     0.545306000000     0.281764000000     0          
O3UB     O      0.330920000000     0.742470000000     0.435570000000     0          
O3XF     O      0.242470000000     0.830920000000     0.435570000000     0          
S1       S      0.751320000000     0.611820000000     0.388180000000     0          
C1       C      0.769540000000     0.653290000000     0.442540000000     0          
C2       C      0.777860000000     0.623360000000     0.420790000000     0          
C3       C      0.805900000000     0.603100000000     0.422400000000     0          
H1       H      0.823200000000     0.605700000000     0.438500000000     0          
O3       O      0.742470000000     0.669080000000     0.435570000000     0          
O4       O      0.776400000000     0.776400000000     0.399470000000     0          
O5       O      0.821170000000     0.821170000000     0.456700000000     0          
C1JD     C      0.769540000000     0.557460000000     0.346710000000     0          
C2JD     C      0.777860000000     0.579210000000     0.376640000000     0          
C3JD     C      0.805900000000     0.577600000000     0.396900000000     0          
H1JD     H      0.823200000000     0.561500000000     0.394300000000     0          
O1JD     O      0.790820000000     0.534300000000     0.339480000000     0          
O3JD     O      0.742470000000     0.564430000000     0.330920000000     0          
S1D      S      0.888180000000     0.748680000000     0.388180000000     0          
C1D      C      0.942540000000     0.730460000000     0.346710000000     0          
C2D      C      0.920790000000     0.722140000000     0.376640000000     0          
C3D      C      0.922400000000     0.694100000000     0.396900000000     0          
H1D      H      0.938500000000     0.676800000000     0.394300000000     0          
O1D      O      0.965700000000     0.709180000000     0.339480000000     0          
C1ED     C      0.846710000000     0.730460000000     0.442540000000     0          
C2ED     C      0.876640000000     0.722140000000     0.420790000000     0          
C3ED     C      0.896900000000     0.694100000000     0.422400000000     0          
H1ED     H      0.894300000000     0.676800000000     0.438500000000     0          
O3ED     O      0.830920000000     0.757530000000     0.435570000000     0          
O2UB     O      0.728750000000     0.771250000000     0.456200000000     0          
O4UB     O      0.723600000000     0.723600000000     0.399470000000     0          
O5UB     O      0.678830000000     0.678830000000     0.456700000000     0          
Zr1H     Zr     0.718236000000     0.545306000000     0.281764000000     0          
Zr2H     Zr     0.794669000000     0.500000000000     0.294670000000     0          
O3UB     O      0.757530000000     0.830920000000     0.435570000000     0          
O3XF     O      0.669080000000     0.742470000000     0.435570000000     0          
S1       S      0.888180000000     0.251320000000     0.388180000000     0          
C1       C      0.846710000000     0.269540000000     0.442540000000     0          
C2       C      0.876640000000     0.277860000000     0.420790000000     0          
C3       C      0.896900000000     0.305900000000     0.422400000000     0          
H1       H      0.894300000000     0.323200000000     0.438500000000     0          
O3       O      0.830920000000     0.242470000000     0.435570000000     0          
O4       O      0.723600000000     0.276400000000     0.399470000000     0          
O5       O      0.678830000000     0.321170000000     0.456700000000     0          
C1JD     C      0.942540000000     0.269540000000     0.346710000000     0          
C2JD     C      0.920790000000     0.277860000000     0.376640000000     0          
C3JD     C      0.922400000000     0.305900000000     0.396900000000     0          
H1JD     H      0.938500000000     0.323200000000     0.394300000000     0          
O1JD     O      0.965700000000     0.290820000000     0.339480000000     0          
S1D      S      0.751320000000     0.388180000000     0.388180000000     0          
C1D      C      0.769540000000     0.442540000000     0.346710000000     0          
C2D      C      0.777860000000     0.420790000000     0.376640000000     0          
C3D      C      0.805900000000     0.422400000000     0.396900000000     0          
H1D      H      0.823200000000     0.438500000000     0.394300000000     0          
O1D      O      0.790820000000     0.465700000000     0.339480000000     0          
O3D      O      0.742470000000     0.435570000000     0.330920000000     0          
C1ED     C      0.769540000000     0.346710000000     0.442540000000     0          
C2ED     C      0.777860000000     0.376640000000     0.420790000000     0          
C3ED     C      0.805900000000     0.396900000000     0.422400000000     0          
H1ED     H      0.823200000000     0.394300000000     0.438500000000     0          
O3ED     O      0.742470000000     0.330920000000     0.435570000000     0          
O2UB     O      0.728750000000     0.228750000000     0.456200000000     0          
O4UB     O      0.776400000000     0.223600000000     0.399470000000     0          
O5UB     O      0.821170000000     0.178830000000     0.456700000000     0          
Zr1CA    Zr     0.718236000000     0.454694000000     0.281764000000     0          
O3UB     O      0.669080000000     0.257530000000     0.435570000000     0          
O3XF     O      0.757530000000     0.169080000000     0.435570000000     0          
S1D      S      0.111820000000     0.611820000000     0.748680000000     0          
C1D      C      0.153290000000     0.557460000000     0.730460000000     0          
C2D      C      0.123360000000     0.579210000000     0.722140000000     0          
C3D      C      0.103100000000     0.577600000000     0.694100000000     0          
H1D      H      0.105700000000     0.561500000000     0.676800000000     0          
O1D      O      0.160520000000     0.534300000000     0.709180000000     0          
O3D      O      0.169080000000     0.564430000000     0.757530000000     0          
C1ED     C      0.057460000000     0.653290000000     0.730460000000     0          
C2ED     C      0.079210000000     0.623360000000     0.722140000000     0          
C3ED     C      0.077600000000     0.603100000000     0.694100000000     0          
H1ED     H      0.061500000000     0.605700000000     0.676800000000     0          
O1ED     O      0.034300000000     0.660520000000     0.709180000000     0          
Zr1CA    Zr     0.218236000000     0.545306000000     0.781764000000     0          
O1L      O      0.965700000000     0.660520000000     0.709180000000     0          
Zr1      Zr     0.781764000000     0.545306000000     0.781764000000     0          
O2       O      0.771250000000     0.543800000000     0.728750000000     0          
O4       O      0.776400000000     0.600530000000     0.776400000000     0          
O5       O      0.821170000000     0.543300000000     0.821170000000     0          
O6       O      0.760060000000     0.500000000000     0.803500000000     0          
S1D      S      0.888180000000     0.611820000000     0.748680000000     0          
C1D      C      0.942540000000     0.653290000000     0.730460000000     0          
C2D      C      0.920790000000     0.623360000000     0.722140000000     0          
C3D      C      0.922400000000     0.603100000000     0.694100000000     0          
H1D      H      0.938500000000     0.605700000000     0.676800000000     0          
C1ED     C      0.846710000000     0.557460000000     0.730460000000     0          
C2ED     C      0.876640000000     0.579210000000     0.722140000000     0          
C3ED     C      0.896900000000     0.577600000000     0.694100000000     0          
H1ED     H      0.894300000000     0.561500000000     0.676800000000     0          
O1ED     O      0.839480000000     0.534300000000     0.709180000000     0          
O3ED     O      0.830920000000     0.564430000000     0.757530000000     0          
O2UB     O      0.728750000000     0.543800000000     0.771250000000     0          
O4UB     O      0.723600000000     0.600530000000     0.723600000000     0          
O5UB     O      0.678830000000     0.543300000000     0.678830000000     0          
O6UB     O      0.739940000000     0.500000000000     0.696500000000     0          
Zr1GC    Zr     0.781764000000     0.454694000000     0.781764000000     0          
Zr2UB    Zr     0.705331000000     0.500000000000     0.794669000000     0          
O1L      O      0.839480000000     0.465700000000     0.709180000000     0          
O2L      O      0.771250000000     0.456200000000     0.728750000000     0          
O3UB     O      0.757530000000     0.564430000000     0.830920000000     0          
O3XF     O      0.669080000000     0.564430000000     0.742470000000     0          
O6L      O      0.696500000000     0.500000000000     0.739940000000     0          
O6GC     O      0.803500000000     0.500000000000     0.760060000000     0          
S1D      S      0.888180000000     0.388180000000     0.748680000000     0          
C1D      C      0.846710000000     0.442540000000     0.730460000000     0          
C2D      C      0.876640000000     0.420790000000     0.722140000000     0          
C3D      C      0.896900000000     0.422400000000     0.694100000000     0          
H1D      H      0.894300000000     0.438500000000     0.676800000000     0          
O3D      O      0.830920000000     0.435570000000     0.757530000000     0          
C1ED     C      0.942540000000     0.346710000000     0.730460000000     0          
C2ED     C      0.920790000000     0.376640000000     0.722140000000     0          
C3ED     C      0.922400000000     0.396900000000     0.694100000000     0          
H1ED     H      0.938500000000     0.394300000000     0.676800000000     0          
O1ED     O      0.965700000000     0.339480000000     0.709180000000     0          
O1L      O      0.034300000000     0.339480000000     0.709180000000     0          
Zr1      Zr     0.218236000000     0.454694000000     0.781764000000     0          
O2       O      0.228750000000     0.456200000000     0.728750000000     0          
O4       O      0.223600000000     0.399470000000     0.776400000000     0          
O5       O      0.178830000000     0.456700000000     0.821170000000     0          
O6       O      0.239940000000     0.500000000000     0.803500000000     0          
S1D      S      0.111820000000     0.388180000000     0.748680000000     0          
C1D      C      0.057460000000     0.346710000000     0.730460000000     0          
C2D      C      0.079210000000     0.376640000000     0.722140000000     0          
C3D      C      0.077600000000     0.396900000000     0.694100000000     0          
H1D      H      0.061500000000     0.394300000000     0.676800000000     0          
C1ED     C      0.153290000000     0.442540000000     0.730460000000     0          
C2ED     C      0.123360000000     0.420790000000     0.722140000000     0          
C3ED     C      0.103100000000     0.422400000000     0.694100000000     0          
H1ED     H      0.105700000000     0.438500000000     0.676800000000     0          
O1ED     O      0.160520000000     0.465700000000     0.709180000000     0          
O3ED     O      0.169080000000     0.435570000000     0.757530000000     0          
O2UB     O      0.271250000000     0.456200000000     0.771250000000     0          
O4UB     O      0.276400000000     0.399470000000     0.723600000000     0          
O5UB     O      0.321170000000     0.456700000000     0.678830000000     0          
O6UB     O      0.260060000000     0.500000000000     0.696500000000     0          
Zr2UB    Zr     0.294669000000     0.500000000000     0.794669000000     0          
O2L      O      0.228750000000     0.543800000000     0.728750000000     0          
O3UB     O      0.242470000000     0.435570000000     0.830920000000     0          
O3XF     O      0.330920000000     0.435570000000     0.742470000000     0          
O6L      O      0.303500000000     0.500000000000     0.739940000000     0          
O6GC     O      0.196500000000     0.500000000000     0.760060000000     0          
S1D      S      0.111820000000     0.388180000000     0.251320000000     0          
C1D      C      0.153290000000     0.442540000000     0.269540000000     0          
C2D      C      0.123360000000     0.420790000000     0.277860000000     0          
C3D      C      0.103100000000     0.422400000000     0.305900000000     0          
H1D      H      0.105700000000     0.438500000000     0.323200000000     0          
O1D      O      0.160520000000     0.465700000000     0.290820000000     0          
O3D      O      0.169080000000     0.435570000000     0.242470000000     0          
C1ED     C      0.057460000000     0.346710000000     0.269540000000     0          
C2ED     C      0.079210000000     0.376640000000     0.277860000000     0          
C3ED     C      0.077600000000     0.396900000000     0.305900000000     0          
H1ED     H      0.061500000000     0.394300000000     0.323200000000     0          
O1ED     O      0.034300000000     0.339480000000     0.290820000000     0          
Zr1CA    Zr     0.218236000000     0.454694000000     0.218236000000     0          
O1L      O      0.965700000000     0.339480000000     0.290820000000     0          
Zr1      Zr     0.218236000000     0.545306000000     0.218236000000     0          
O2       O      0.228750000000     0.543800000000     0.271250000000     0          
O4       O      0.223600000000     0.600530000000     0.223600000000     0          
O5       O      0.178830000000     0.543300000000     0.178830000000     0          
O6       O      0.239940000000     0.500000000000     0.196500000000     0          
S1D      S      0.111820000000     0.611820000000     0.251320000000     0          
C1D      C      0.057460000000     0.653290000000     0.269540000000     0          
C2D      C      0.079210000000     0.623360000000     0.277860000000     0          
C3D      C      0.077600000000     0.603100000000     0.305900000000     0          
H1D      H      0.061500000000     0.605700000000     0.323200000000     0          
O1D      O      0.034300000000     0.660520000000     0.290820000000     0          
C1ED     C      0.153290000000     0.557460000000     0.269540000000     0          
C2ED     C      0.123360000000     0.579210000000     0.277860000000     0          
C3ED     C      0.103100000000     0.577600000000     0.305900000000     0          
H1ED     H      0.105700000000     0.561500000000     0.323200000000     0          
O1ED     O      0.160520000000     0.534300000000     0.290820000000     0          
O3ED     O      0.169080000000     0.564430000000     0.242470000000     0          
O2UB     O      0.271250000000     0.543800000000     0.228750000000     0          
O4UB     O      0.276400000000     0.600530000000     0.276400000000     0          
O5UB     O      0.321170000000     0.543300000000     0.321170000000     0          
O6UB     O      0.260060000000     0.500000000000     0.303500000000     0          
Zr2UB    Zr     0.294669000000     0.500000000000     0.205331000000     0          
O2L      O      0.228750000000     0.456200000000     0.271250000000     0          
O3UB     O      0.242470000000     0.564430000000     0.169080000000     0          
O3XF     O      0.330920000000     0.564430000000     0.257530000000     0          
O6L      O      0.303500000000     0.500000000000     0.260060000000     0          
O6GC     O      0.196500000000     0.500000000000     0.239940000000     0          
S1D      S      0.888180000000     0.611820000000     0.251320000000     0          
C1D      C      0.846710000000     0.557460000000     0.269540000000     0          
C2D      C      0.876640000000     0.579210000000     0.277860000000     0          
C3D      C      0.896900000000     0.577600000000     0.305900000000     0          
H1D      H      0.894300000000     0.561500000000     0.323200000000     0          
O1D      O      0.839480000000     0.534300000000     0.290820000000     0          
O3D      O      0.830920000000     0.564430000000     0.242470000000     0          
C1ED     C      0.942540000000     0.653290000000     0.269540000000     0          
C2ED     C      0.920790000000     0.623360000000     0.277860000000     0          
C3ED     C      0.922400000000     0.603100000000     0.305900000000     0          
H1ED     H      0.938500000000     0.605700000000     0.323200000000     0          
O1ED     O      0.965700000000     0.660520000000     0.290820000000     0          
Zr1CA    Zr     0.781764000000     0.545306000000     0.218236000000     0          
Zr1      Zr     0.781764000000     0.454694000000     0.218236000000     0          
O2       O      0.771250000000     0.456200000000     0.271250000000     0          
O4       O      0.776400000000     0.399470000000     0.223600000000     0          
O5       O      0.821170000000     0.456700000000     0.178830000000     0          
O6       O      0.760060000000     0.500000000000     0.196500000000     0          
S1D      S      0.888180000000     0.388180000000     0.251320000000     0          
C1D      C      0.942540000000     0.346710000000     0.269540000000     0          
C2D      C      0.920790000000     0.376640000000     0.277860000000     0          
C3D      C      0.922400000000     0.396900000000     0.305900000000     0          
H1D      H      0.938500000000     0.394300000000     0.323200000000     0          
C1ED     C      0.846710000000     0.442540000000     0.269540000000     0          
C2ED     C      0.876640000000     0.420790000000     0.277860000000     0          
C3ED     C      0.896900000000     0.422400000000     0.305900000000     0          
H1ED     H      0.894300000000     0.438500000000     0.323200000000     0          
O1ED     O      0.839480000000     0.465700000000     0.290820000000     0          
O3ED     O      0.830920000000     0.435570000000     0.242470000000     0          
O2UB     O      0.728750000000     0.456200000000     0.228750000000     0          
O4UB     O      0.723600000000     0.399470000000     0.276400000000     0          
O5UB     O      0.678830000000     0.456700000000     0.321170000000     0          
O6UB     O      0.739940000000     0.500000000000     0.303500000000     0          
Zr2UB    Zr     0.705331000000     0.500000000000     0.205331000000     0          
O2L      O      0.771250000000     0.543800000000     0.271250000000     0          
O3UB     O      0.757530000000     0.435570000000     0.169080000000     0          
O3XF     O      0.669080000000     0.435570000000     0.257530000000     0          
O6L      O      0.696500000000     0.500000000000     0.260060000000     0          
O6GC     O      0.803500000000     0.500000000000     0.239940000000     0          
O4       O      0.276400000000     0.600530000000     0.723600000000     0          
O5       O      0.321170000000     0.543300000000     0.678830000000     0          
O2UB     O      0.271250000000     0.543800000000     0.771250000000     0          
O4UB     O      0.223600000000     0.600530000000     0.776400000000     0          
O5UB     O      0.178830000000     0.543300000000     0.821170000000     0          
O3UB     O      0.330920000000     0.564430000000     0.742470000000     0          
O3XF     O      0.242470000000     0.564430000000     0.830920000000     0          
O4       O      0.276400000000     0.399470000000     0.276400000000     0          
O5       O      0.321170000000     0.456700000000     0.321170000000     0          
O2UB     O      0.271250000000     0.456200000000     0.228750000000     0          
O4UB     O      0.223600000000     0.399470000000     0.223600000000     0          
O5UB     O      0.178830000000     0.456700000000     0.178830000000     0          
O3UB     O      0.330920000000     0.435570000000     0.257530000000     0          
O3XF     O      0.242470000000     0.435570000000     0.169080000000     0          
O4       O      0.723600000000     0.600530000000     0.276400000000     0          
O5       O      0.678830000000     0.543300000000     0.321170000000     0          
O2UB     O      0.728750000000     0.543800000000     0.228750000000     0          
O4UB     O      0.776400000000     0.600530000000     0.223600000000     0          
O5UB     O      0.821170000000     0.543300000000     0.178830000000     0          
O3UB     O      0.669080000000     0.564430000000     0.257530000000     0          
O3XF     O      0.757530000000     0.564430000000     0.169080000000     0          
O4       O      0.723600000000     0.399470000000     0.723600000000     0          
O5       O      0.678830000000     0.456700000000     0.678830000000     0          
O2UB     O      0.728750000000     0.456200000000     0.771250000000     0          
O4UB     O      0.776400000000     0.399470000000     0.776400000000     0          
O5UB     O      0.821170000000     0.456700000000     0.821170000000     0          
O3UB     O      0.669080000000     0.435570000000     0.742470000000     0          
O3XF     O      0.757530000000     0.435570000000     0.830920000000     0          
S1       S      0.748680000000     0.111820000000     0.611820000000     0          
C1       C      0.730460000000     0.153290000000     0.557460000000     0          
C2       C      0.722140000000     0.123360000000     0.579210000000     0          
C3       C      0.694100000000     0.103100000000     0.577600000000     0          
H1       H      0.676800000000     0.105700000000     0.561500000000     0          
O1       O      0.709180000000     0.160520000000     0.534300000000     0          
C1JD     C      0.730460000000     0.057460000000     0.653290000000     0          
C2JD     C      0.722140000000     0.079210000000     0.623360000000     0          
C3JD     C      0.694100000000     0.077600000000     0.603100000000     0          
H1JD     H      0.676800000000     0.061500000000     0.605700000000     0          
O1JD     O      0.709180000000     0.034300000000     0.660520000000     0          
S1D      S      0.611820000000     0.248680000000     0.611820000000     0          
C1D      C      0.557460000000     0.230460000000     0.653290000000     0          
C2D      C      0.579210000000     0.222140000000     0.623360000000     0          
C3D      C      0.577600000000     0.194100000000     0.603100000000     0          
H1D      H      0.561500000000     0.176800000000     0.605700000000     0          
O1D      O      0.534300000000     0.209180000000     0.660520000000     0          
O3D      O      0.564430000000     0.257530000000     0.669080000000     0          
C1ED     C      0.653290000000     0.230460000000     0.557460000000     0          
C2ED     C      0.623360000000     0.222140000000     0.579210000000     0          
C3ED     C      0.603100000000     0.194100000000     0.577600000000     0          
H1ED     H      0.605700000000     0.176800000000     0.561500000000     0          
O1ED     O      0.660520000000     0.209180000000     0.534300000000     0          
Zr1CA    Zr     0.545306000000     0.281764000000     0.718236000000     0          
Zr2D     Zr     0.500000000000     0.205331000000     0.705330000000     0          
O1L      O      0.660520000000     0.209180000000     0.465700000000     0          
O1SC     O      0.709180000000     0.160520000000     0.465700000000     0          
S1       S      0.388180000000     0.248680000000     0.611820000000     0          
C1       C      0.346710000000     0.230460000000     0.557460000000     0          
C2       C      0.376640000000     0.222140000000     0.579210000000     0          
C3       C      0.396900000000     0.194100000000     0.577600000000     0          
H1       H      0.394300000000     0.176800000000     0.561500000000     0          
O1       O      0.339480000000     0.209180000000     0.534300000000     0          
C1JD     C      0.442540000000     0.230460000000     0.653290000000     0          
C2JD     C      0.420790000000     0.222140000000     0.623360000000     0          
C3JD     C      0.422400000000     0.194100000000     0.603100000000     0          
H1JD     H      0.438500000000     0.176800000000     0.605700000000     0          
O1JD     O      0.465700000000     0.209180000000     0.660520000000     0          
O3JD     O      0.435570000000     0.257530000000     0.669080000000     0          
S1D      S      0.251320000000     0.111820000000     0.611820000000     0          
C1D      C      0.269540000000     0.057460000000     0.653290000000     0          
C2D      C      0.277860000000     0.079210000000     0.623360000000     0          
C3D      C      0.305900000000     0.077600000000     0.603100000000     0          
H1D      H      0.323200000000     0.061500000000     0.605700000000     0          
O1D      O      0.290820000000     0.034300000000     0.660520000000     0          
C1ED     C      0.269540000000     0.153290000000     0.557460000000     0          
C2ED     C      0.277860000000     0.123360000000     0.579210000000     0          
C3ED     C      0.305900000000     0.103100000000     0.577600000000     0          
H1ED     H      0.323200000000     0.105700000000     0.561500000000     0          
O1ED     O      0.290820000000     0.160520000000     0.534300000000     0          
Zr1H     Zr     0.454694000000     0.281764000000     0.718236000000     0          
O1L      O      0.290820000000     0.160520000000     0.465700000000     0          
O1SC     O      0.339480000000     0.209180000000     0.465700000000     0          
S1       S      0.251320000000     0.888180000000     0.611820000000     0          
C1       C      0.269540000000     0.846710000000     0.557460000000     0          
C2       C      0.277860000000     0.876640000000     0.579210000000     0          
C3       C      0.305900000000     0.896900000000     0.577600000000     0          
H1       H      0.323200000000     0.894300000000     0.561500000000     0          
O1       O      0.290820000000     0.839480000000     0.534300000000     0          
C1JD     C      0.269540000000     0.942540000000     0.653290000000     0          
C2JD     C      0.277860000000     0.920790000000     0.623360000000     0          
C3JD     C      0.305900000000     0.922400000000     0.603100000000     0          
H1JD     H      0.323200000000     0.938500000000     0.605700000000     0          
O1JD     O      0.290820000000     0.965700000000     0.660520000000     0          
S1D      S      0.388180000000     0.751320000000     0.611820000000     0          
C1D      C      0.442540000000     0.769540000000     0.653290000000     0          
C2D      C      0.420790000000     0.777860000000     0.623360000000     0          
C3D      C      0.422400000000     0.805900000000     0.603100000000     0          
H1D      H      0.438500000000     0.823200000000     0.605700000000     0          
O1D      O      0.465700000000     0.790820000000     0.660520000000     0          
O3D      O      0.435570000000     0.742470000000     0.669080000000     0          
C1ED     C      0.346710000000     0.769540000000     0.557460000000     0          
C2ED     C      0.376640000000     0.777860000000     0.579210000000     0          
C3ED     C      0.396900000000     0.805900000000     0.577600000000     0          
H1ED     H      0.394300000000     0.823200000000     0.561500000000     0          
O1ED     O      0.339480000000     0.790820000000     0.534300000000     0          
Zr1CA    Zr     0.454694000000     0.718236000000     0.718236000000     0          
Zr2D     Zr     0.500000000000     0.794669000000     0.705330000000     0          
O1L      O      0.339480000000     0.790820000000     0.465700000000     0          
O1SC     O      0.290820000000     0.839480000000     0.465700000000     0          
S1       S      0.611820000000     0.751320000000     0.611820000000     0          
C1       C      0.653290000000     0.769540000000     0.557460000000     0          
C2       C      0.623360000000     0.777860000000     0.579210000000     0          
C3       C      0.603100000000     0.805900000000     0.577600000000     0          
H1       H      0.605700000000     0.823200000000     0.561500000000     0          
O1       O      0.660520000000     0.790820000000     0.534300000000     0          
C1JD     C      0.557460000000     0.769540000000     0.653290000000     0          
C2JD     C      0.579210000000     0.777860000000     0.623360000000     0          
C3JD     C      0.577600000000     0.805900000000     0.603100000000     0          
H1JD     H      0.561500000000     0.823200000000     0.605700000000     0          
O1JD     O      0.534300000000     0.790820000000     0.660520000000     0          
O3JD     O      0.564430000000     0.742470000000     0.669080000000     0          
S1D      S      0.748680000000     0.888180000000     0.611820000000     0          
C1D      C      0.730460000000     0.942540000000     0.653290000000     0          
C2D      C      0.722140000000     0.920790000000     0.623360000000     0          
C3D      C      0.694100000000     0.922400000000     0.603100000000     0          
H1D      H      0.676800000000     0.938500000000     0.605700000000     0          
O1D      O      0.709180000000     0.965700000000     0.660520000000     0          
C1ED     C      0.730460000000     0.846710000000     0.557460000000     0          
C2ED     C      0.722140000000     0.876640000000     0.579210000000     0          
C3ED     C      0.694100000000     0.896900000000     0.577600000000     0          
H1ED     H      0.676800000000     0.894300000000     0.561500000000     0          
O1ED     O      0.709180000000     0.839480000000     0.534300000000     0          
Zr1H     Zr     0.545306000000     0.718236000000     0.718236000000     0          
O1L      O      0.709180000000     0.839480000000     0.465700000000     0          
O1SC     O      0.660520000000     0.790820000000     0.465700000000     0          
S1       S      0.748680000000     0.888180000000     0.388180000000     0          
C1       C      0.730460000000     0.846710000000     0.442540000000     0          
C2       C      0.722140000000     0.876640000000     0.420790000000     0          
C3       C      0.694100000000     0.896900000000     0.422400000000     0          
H1       H      0.676800000000     0.894300000000     0.438500000000     0          
C1JD     C      0.730460000000     0.942540000000     0.346710000000     0          
C2JD     C      0.722140000000     0.920790000000     0.376640000000     0          
C3JD     C      0.694100000000     0.922400000000     0.396900000000     0          
H1JD     H      0.676800000000     0.938500000000     0.394300000000     0          
O1JD     O      0.709180000000     0.965700000000     0.339480000000     0          
S1D      S      0.611820000000     0.751320000000     0.388180000000     0          
C1D      C      0.557460000000     0.769540000000     0.346710000000     0          
C2D      C      0.579210000000     0.777860000000     0.376640000000     0          
C3D      C      0.577600000000     0.805900000000     0.396900000000     0          
H1D      H      0.561500000000     0.823200000000     0.394300000000     0          
O1D      O      0.534300000000     0.790820000000     0.339480000000     0          
O3D      O      0.564430000000     0.742470000000     0.330920000000     0          
C1ED     C      0.653290000000     0.769540000000     0.442540000000     0          
C2ED     C      0.623360000000     0.777860000000     0.420790000000     0          
C3ED     C      0.603100000000     0.805900000000     0.422400000000     0          
H1ED     H      0.605700000000     0.823200000000     0.438500000000     0          
Zr1CA    Zr     0.545306000000     0.718236000000     0.281764000000     0          
Zr2D     Zr     0.500000000000     0.794669000000     0.294670000000     0          
S1       S      0.611820000000     0.248680000000     0.388180000000     0          
C1       C      0.653290000000     0.230460000000     0.442540000000     0          
C2       C      0.623360000000     0.222140000000     0.420790000000     0          
C3       C      0.603100000000     0.194100000000     0.422400000000     0          
H1       H      0.605700000000     0.176800000000     0.438500000000     0          
C1JD     C      0.557460000000     0.230460000000     0.346710000000     0          
C2JD     C      0.579210000000     0.222140000000     0.376640000000     0          
C3JD     C      0.577600000000     0.194100000000     0.396900000000     0          
H1JD     H      0.561500000000     0.176800000000     0.394300000000     0          
O1JD     O      0.534300000000     0.209180000000     0.339480000000     0          
O3JD     O      0.564430000000     0.257530000000     0.330920000000     0          
S1D      S      0.748680000000     0.111820000000     0.388180000000     0          
C1D      C      0.730460000000     0.057460000000     0.346710000000     0          
C2D      C      0.722140000000     0.079210000000     0.376640000000     0          
C3D      C      0.694100000000     0.077600000000     0.396900000000     0          
H1D      H      0.676800000000     0.061500000000     0.394300000000     0          
O1D      O      0.709180000000     0.034300000000     0.339480000000     0          
C1ED     C      0.730460000000     0.153290000000     0.442540000000     0          
C2ED     C      0.722140000000     0.123360000000     0.420790000000     0          
C3ED     C      0.694100000000     0.103100000000     0.422400000000     0          
H1ED     H      0.676800000000     0.105700000000     0.438500000000     0          
Zr1H     Zr     0.545306000000     0.281764000000     0.281764000000     0          
Zr2H     Zr     0.500000000000     0.205331000000     0.294670000000     0          
S1       S      0.251320000000     0.111820000000     0.388180000000     0          
C1       C      0.269540000000     0.153290000000     0.442540000000     0          
C2       C      0.277860000000     0.123360000000     0.420790000000     0          
C3       C      0.305900000000     0.103100000000     0.422400000000     0          
H1       H      0.323200000000     0.105700000000     0.438500000000     0          
C1JD     C      0.269540000000     0.057460000000     0.346710000000     0          
C2JD     C      0.277860000000     0.079210000000     0.376640000000     0          
C3JD     C      0.305900000000     0.077600000000     0.396900000000     0          
H1JD     H      0.323200000000     0.061500000000     0.394300000000     0          
O1JD     O      0.290820000000     0.034300000000     0.339480000000     0          
S1D      S      0.388180000000     0.248680000000     0.388180000000     0          
C1D      C      0.442540000000     0.230460000000     0.346710000000     0          
C2D      C      0.420790000000     0.222140000000     0.376640000000     0          
C3D      C      0.422400000000     0.194100000000     0.396900000000     0          
H1D      H      0.438500000000     0.176800000000     0.394300000000     0          
O1D      O      0.465700000000     0.209180000000     0.339480000000     0          
O3D      O      0.435570000000     0.257530000000     0.330920000000     0          
C1ED     C      0.346710000000     0.230460000000     0.442540000000     0          
C2ED     C      0.376640000000     0.222140000000     0.420790000000     0          
C3ED     C      0.396900000000     0.194100000000     0.422400000000     0          
H1ED     H      0.394300000000     0.176800000000     0.438500000000     0          
Zr1CA    Zr     0.454694000000     0.281764000000     0.281764000000     0          
S1       S      0.388180000000     0.751320000000     0.388180000000     0          
C1       C      0.346710000000     0.769540000000     0.442540000000     0          
C2       C      0.376640000000     0.777860000000     0.420790000000     0          
C3       C      0.396900000000     0.805900000000     0.422400000000     0          
H1       H      0.394300000000     0.823200000000     0.438500000000     0          
C1JD     C      0.442540000000     0.769540000000     0.346710000000     0          
C2JD     C      0.420790000000     0.777860000000     0.376640000000     0          
C3JD     C      0.422400000000     0.805900000000     0.396900000000     0          
H1JD     H      0.438500000000     0.823200000000     0.394300000000     0          
O1JD     O      0.465700000000     0.790820000000     0.339480000000     0          
O3JD     O      0.435570000000     0.742470000000     0.330920000000     0          
S1D      S      0.251320000000     0.888180000000     0.388180000000     0          
C1D      C      0.269540000000     0.942540000000     0.346710000000     0          
C2D      C      0.277860000000     0.920790000000     0.376640000000     0          
C3D      C      0.305900000000     0.922400000000     0.396900000000     0          
H1D      H      0.323200000000     0.938500000000     0.394300000000     0          
O1D      O      0.290820000000     0.965700000000     0.339480000000     0          
C1ED     C      0.269540000000     0.846710000000     0.442540000000     0          
C2ED     C      0.277860000000     0.876640000000     0.420790000000     0          
C3ED     C      0.305900000000     0.896900000000     0.422400000000     0          
H1ED     H      0.323200000000     0.894300000000     0.438500000000     0          
Zr1H     Zr     0.454694000000     0.718236000000     0.281764000000     0          
Zr1      Zr     0.545306000000     0.218236000000     0.781764000000     0          
O2       O      0.543800000000     0.228750000000     0.728750000000     0          
O4       O      0.600530000000     0.223600000000     0.776400000000     0          
O5       O      0.543300000000     0.178830000000     0.821170000000     0          
O6       O      0.500000000000     0.239940000000     0.803500000000     0          
S1D      S      0.611820000000     0.111820000000     0.748680000000     0          
C1D      C      0.653290000000     0.057460000000     0.730460000000     0          
C2D      C      0.623360000000     0.079210000000     0.722140000000     0          
C3D      C      0.603100000000     0.077600000000     0.694100000000     0          
H1D      H      0.605700000000     0.061500000000     0.676800000000     0          
O1D      O      0.660520000000     0.034300000000     0.709180000000     0          
C1ED     C      0.557460000000     0.153290000000     0.730460000000     0          
C2ED     C      0.579210000000     0.123360000000     0.722140000000     0          
C3ED     C      0.577600000000     0.103100000000     0.694100000000     0          
H1ED     H      0.561500000000     0.105700000000     0.676800000000     0          
O1ED     O      0.534300000000     0.160520000000     0.709180000000     0          
O3ED     O      0.564430000000     0.169080000000     0.757530000000     0          
O2UB     O      0.543800000000     0.271250000000     0.771250000000     0          
O4UB     O      0.600530000000     0.276400000000     0.723600000000     0          
O5UB     O      0.543300000000     0.321170000000     0.678830000000     0          
O6UB     O      0.500000000000     0.260060000000     0.696500000000     0          
Zr1GC    Zr     0.454694000000     0.218236000000     0.781764000000     0          
Zr2UB    Zr     0.500000000000     0.294669000000     0.794669000000     0          
O1L      O      0.465700000000     0.160520000000     0.709180000000     0          
O2L      O      0.456200000000     0.228750000000     0.728750000000     0          
O3UB     O      0.564430000000     0.242470000000     0.830920000000     0          
O3XF     O      0.564430000000     0.330920000000     0.742470000000     0          
O6L      O      0.500000000000     0.303500000000     0.739940000000     0          
O6GC     O      0.500000000000     0.196500000000     0.760060000000     0          
S1D      S      0.388180000000     0.111820000000     0.748680000000     0          
C1D      C      0.442540000000     0.153290000000     0.730460000000     0          
C2D      C      0.420790000000     0.123360000000     0.722140000000     0          
C3D      C      0.422400000000     0.103100000000     0.694100000000     0          
H1D      H      0.438500000000     0.105700000000     0.676800000000     0          
O3D      O      0.435570000000     0.169080000000     0.757530000000     0          
C1ED     C      0.346710000000     0.057460000000     0.730460000000     0          
C2ED     C      0.376640000000     0.079210000000     0.722140000000     0          
C3ED     C      0.396900000000     0.077600000000     0.694100000000     0          
H1ED     H      0.394300000000     0.061500000000     0.676800000000     0          
O1ED     O      0.339480000000     0.034300000000     0.709180000000     0          
O1L      O      0.339480000000     0.965700000000     0.709180000000     0          
Zr1      Zr     0.454694000000     0.781764000000     0.781764000000     0          
O2       O      0.456200000000     0.771250000000     0.728750000000     0          
O4       O      0.399470000000     0.776400000000     0.776400000000     0          
O5       O      0.456700000000     0.821170000000     0.821170000000     0          
O6       O      0.500000000000     0.760060000000     0.803500000000     0          
S1D      S      0.388180000000     0.888180000000     0.748680000000     0          
C1D      C      0.346710000000     0.942540000000     0.730460000000     0          
C2D      C      0.376640000000     0.920790000000     0.722140000000     0          
C3D      C      0.396900000000     0.922400000000     0.694100000000     0          
H1D      H      0.394300000000     0.938500000000     0.676800000000     0          
C1ED     C      0.442540000000     0.846710000000     0.730460000000     0          
C2ED     C      0.420790000000     0.876640000000     0.722140000000     0          
C3ED     C      0.422400000000     0.896900000000     0.694100000000     0          
H1ED     H      0.438500000000     0.894300000000     0.676800000000     0          
O1ED     O      0.465700000000     0.839480000000     0.709180000000     0          
O3ED     O      0.435570000000     0.830920000000     0.757530000000     0          
O2UB     O      0.456200000000     0.728750000000     0.771250000000     0          
O4UB     O      0.399470000000     0.723600000000     0.723600000000     0          
O5UB     O      0.456700000000     0.678830000000     0.678830000000     0          
O6UB     O      0.500000000000     0.739940000000     0.696500000000     0          
Zr1GC    Zr     0.545306000000     0.781764000000     0.781764000000     0          
Zr2UB    Zr     0.500000000000     0.705331000000     0.794669000000     0          
O1L      O      0.534300000000     0.839480000000     0.709180000000     0          
O2L      O      0.543800000000     0.771250000000     0.728750000000     0          
O3UB     O      0.435570000000     0.757530000000     0.830920000000     0          
O3XF     O      0.435570000000     0.669080000000     0.742470000000     0          
O6L      O      0.500000000000     0.696500000000     0.739940000000     0          
O6GC     O      0.500000000000     0.803500000000     0.760060000000     0          
S1D      S      0.611820000000     0.888180000000     0.748680000000     0          
C1D      C      0.557460000000     0.846710000000     0.730460000000     0          
C2D      C      0.579210000000     0.876640000000     0.722140000000     0          
C3D      C      0.577600000000     0.896900000000     0.694100000000     0          
H1D      H      0.561500000000     0.894300000000     0.676800000000     0          
O3D      O      0.564430000000     0.830920000000     0.757530000000     0          
C1ED     C      0.653290000000     0.942540000000     0.730460000000     0          
C2ED     C      0.623360000000     0.920790000000     0.722140000000     0          
C3ED     C      0.603100000000     0.922400000000     0.694100000000     0          
H1ED     H      0.605700000000     0.938500000000     0.676800000000     0          
O1ED     O      0.660520000000     0.965700000000     0.709180000000     0          
Zr1      Zr     0.545306000000     0.781764000000     0.218236000000     0          
O2       O      0.543800000000     0.771250000000     0.271250000000     0          
O4       O      0.600530000000     0.776400000000     0.223600000000     0          
O5       O      0.543300000000     0.821170000000     0.178830000000     0          
O6       O      0.500000000000     0.760060000000     0.196500000000     0          
S1D      S      0.611820000000     0.888180000000     0.251320000000     0          
C1D      C      0.653290000000     0.942540000000     0.269540000000     0          
C2D      C      0.623360000000     0.920790000000     0.277860000000     0          
C3D      C      0.603100000000     0.922400000000     0.305900000000     0          
H1D      H      0.605700000000     0.938500000000     0.323200000000     0          
O1D      O      0.660520000000     0.965700000000     0.290820000000     0          
C1ED     C      0.557460000000     0.846710000000     0.269540000000     0          
C2ED     C      0.579210000000     0.876640000000     0.277860000000     0          
C3ED     C      0.577600000000     0.896900000000     0.305900000000     0          
H1ED     H      0.561500000000     0.894300000000     0.323200000000     0          
O1ED     O      0.534300000000     0.839480000000     0.290820000000     0          
O3ED     O      0.564430000000     0.830920000000     0.242470000000     0          
O2UB     O      0.543800000000     0.728750000000     0.228750000000     0          
O4UB     O      0.600530000000     0.723600000000     0.276400000000     0          
O5UB     O      0.543300000000     0.678830000000     0.321170000000     0          
O6UB     O      0.500000000000     0.739940000000     0.303500000000     0          
Zr1GC    Zr     0.454694000000     0.781764000000     0.218236000000     0          
Zr2UB    Zr     0.500000000000     0.705331000000     0.205331000000     0          
O1L      O      0.465700000000     0.839480000000     0.290820000000     0          
O2L      O      0.456200000000     0.771250000000     0.271250000000     0          
O3UB     O      0.564430000000     0.757530000000     0.169080000000     0          
O3XF     O      0.564430000000     0.669080000000     0.257530000000     0          
O6L      O      0.500000000000     0.696500000000     0.260060000000     0          
O6GC     O      0.500000000000     0.803500000000     0.239940000000     0          
S1D      S      0.611820000000     0.111820000000     0.251320000000     0          
C1D      C      0.557460000000     0.153290000000     0.269540000000     0          
C2D      C      0.579210000000     0.123360000000     0.277860000000     0          
C3D      C      0.577600000000     0.103100000000     0.305900000000     0          
H1D      H      0.561500000000     0.105700000000     0.323200000000     0          
O1D      O      0.534300000000     0.160520000000     0.290820000000     0          
O3D      O      0.564430000000     0.169080000000     0.242470000000     0          
C1ED     C      0.653290000000     0.057460000000     0.269540000000     0          
C2ED     C      0.623360000000     0.079210000000     0.277860000000     0          
C3ED     C      0.603100000000     0.077600000000     0.305900000000     0          
H1ED     H      0.605700000000     0.061500000000     0.323200000000     0          
O1ED     O      0.660520000000     0.034300000000     0.290820000000     0          
Zr1CA    Zr     0.545306000000     0.218236000000     0.218236000000     0          
Zr1      Zr     0.454694000000     0.218236000000     0.218236000000     0          
O2       O      0.456200000000     0.228750000000     0.271250000000     0          
O4       O      0.399470000000     0.223600000000     0.223600000000     0          
O5       O      0.456700000000     0.178830000000     0.178830000000     0          
O6       O      0.500000000000     0.239940000000     0.196500000000     0          
S1D      S      0.388180000000     0.111820000000     0.251320000000     0          
C1D      C      0.346710000000     0.057460000000     0.269540000000     0          
C2D      C      0.376640000000     0.079210000000     0.277860000000     0          
C3D      C      0.396900000000     0.077600000000     0.305900000000     0          
H1D      H      0.394300000000     0.061500000000     0.323200000000     0          
O1D      O      0.339480000000     0.034300000000     0.290820000000     0          
C1ED     C      0.442540000000     0.153290000000     0.269540000000     0          
C2ED     C      0.420790000000     0.123360000000     0.277860000000     0          
C3ED     C      0.422400000000     0.103100000000     0.305900000000     0          
H1ED     H      0.438500000000     0.105700000000     0.323200000000     0          
O1ED     O      0.465700000000     0.160520000000     0.290820000000     0          
O3ED     O      0.435570000000     0.169080000000     0.242470000000     0          
O2UB     O      0.456200000000     0.271250000000     0.228750000000     0          
O4UB     O      0.399470000000     0.276400000000     0.276400000000     0          
O5UB     O      0.456700000000     0.321170000000     0.321170000000     0          
O6UB     O      0.500000000000     0.260060000000     0.303500000000     0          
Zr2UB    Zr     0.500000000000     0.294669000000     0.205331000000     0          
O2L      O      0.543800000000     0.228750000000     0.271250000000     0          
O3UB     O      0.435570000000     0.242470000000     0.169080000000     0          
O3XF     O      0.435570000000     0.330920000000     0.257530000000     0          
O6L      O      0.500000000000     0.303500000000     0.260060000000     0          
O6GC     O      0.500000000000     0.196500000000     0.239940000000     0          
S1D      S      0.388180000000     0.888180000000     0.251320000000     0          
C1D      C      0.442540000000     0.846710000000     0.269540000000     0          
C2D      C      0.420790000000     0.876640000000     0.277860000000     0          
C3D      C      0.422400000000     0.896900000000     0.305900000000     0          
H1D      H      0.438500000000     0.894300000000     0.323200000000     0          
O3D      O      0.435570000000     0.830920000000     0.242470000000     0          
C1ED     C      0.346710000000     0.942540000000     0.269540000000     0          
C2ED     C      0.376640000000     0.920790000000     0.277860000000     0          
C3ED     C      0.396900000000     0.922400000000     0.305900000000     0          
H1ED     H      0.394300000000     0.938500000000     0.323200000000     0          
O1ED     O      0.339480000000     0.965700000000     0.290820000000     0          
O4       O      0.600530000000     0.276400000000     0.276400000000     0          
O5       O      0.543300000000     0.321170000000     0.321170000000     0          
O2UB     O      0.543800000000     0.271250000000     0.228750000000     0          
O4UB     O      0.600530000000     0.223600000000     0.223600000000     0          
O5UB     O      0.543300000000     0.178830000000     0.178830000000     0          
O3UB     O      0.564430000000     0.330920000000     0.257530000000     0          
O3XF     O      0.564430000000     0.242470000000     0.169080000000     0          
O4       O      0.399470000000     0.723600000000     0.276400000000     0          
O5       O      0.456700000000     0.678830000000     0.321170000000     0          
O2UB     O      0.456200000000     0.728750000000     0.228750000000     0          
O4UB     O      0.399470000000     0.776400000000     0.223600000000     0          
O5UB     O      0.456700000000     0.821170000000     0.178830000000     0          
O3UB     O      0.435570000000     0.669080000000     0.257530000000     0          
O3XF     O      0.435570000000     0.757530000000     0.169080000000     0          
O4       O      0.600530000000     0.723600000000     0.723600000000     0          
O5       O      0.543300000000     0.678830000000     0.678830000000     0          
O2UB     O      0.543800000000     0.728750000000     0.771250000000     0          
O4UB     O      0.600530000000     0.776400000000     0.776400000000     0          
O5UB     O      0.543300000000     0.821170000000     0.821170000000     0          
O3UB     O      0.564430000000     0.669080000000     0.742470000000     0          
O3XF     O      0.564430000000     0.757530000000     0.830920000000     0          
O4       O      0.399470000000     0.276400000000     0.723600000000     0          
O5       O      0.456700000000     0.321170000000     0.678830000000     0          
O2UB     O      0.456200000000     0.271250000000     0.771250000000     0          
O4UB     O      0.399470000000     0.223600000000     0.776400000000     0          
O5UB     O      0.456700000000     0.178830000000     0.821170000000     0          
O3UB     O      0.435570000000     0.330920000000     0.742470000000     0          
O3XF     O      0.435570000000     0.242470000000     0.830920000000     0          
S1       S      0.748680000000     0.611820000000     0.111820000000     0          
C1       C      0.730460000000     0.653290000000     0.057460000000     0          
C2       C      0.722140000000     0.623360000000     0.079210000000     0          
C3       C      0.694100000000     0.603100000000     0.077600000000     0          
H1       H      0.676800000000     0.605700000000     0.061500000000     0          
O1       O      0.709180000000     0.660520000000     0.034300000000     0          
C1JD     C      0.730460000000     0.557460000000     0.153290000000     0          
C2JD     C      0.722140000000     0.579210000000     0.123360000000     0          
C3JD     C      0.694100000000     0.577600000000     0.103100000000     0          
H1JD     H      0.676800000000     0.561500000000     0.105700000000     0          
O1JD     O      0.709180000000     0.534300000000     0.160520000000     0          
S1D      S      0.611820000000     0.748680000000     0.111820000000     0          
C1D      C      0.557460000000     0.730460000000     0.153290000000     0          
C2D      C      0.579210000000     0.722140000000     0.123360000000     0          
C3D      C      0.577600000000     0.694100000000     0.103100000000     0          
H1D      H      0.561500000000     0.676800000000     0.105700000000     0          
O1D      O      0.534300000000     0.709180000000     0.160520000000     0          
C1ED     C      0.653290000000     0.730460000000     0.057460000000     0          
C2ED     C      0.623360000000     0.722140000000     0.079210000000     0          
C3ED     C      0.603100000000     0.694100000000     0.077600000000     0          
H1ED     H      0.605700000000     0.676800000000     0.061500000000     0          
O1ED     O      0.660520000000     0.709180000000     0.034300000000     0          
O1L      O      0.660520000000     0.709180000000     0.965700000000     0          
O1SC     O      0.709180000000     0.660520000000     0.965700000000     0          
S1       S      0.388180000000     0.748680000000     0.111820000000     0          
C1       C      0.346710000000     0.730460000000     0.057460000000     0          
C2       C      0.376640000000     0.722140000000     0.079210000000     0          
C3       C      0.396900000000     0.694100000000     0.077600000000     0          
H1       H      0.394300000000     0.676800000000     0.061500000000     0          
O1       O      0.339480000000     0.709180000000     0.034300000000     0          
C1JD     C      0.442540000000     0.730460000000     0.153290000000     0          
C2JD     C      0.420790000000     0.722140000000     0.123360000000     0          
C3JD     C      0.422400000000     0.694100000000     0.103100000000     0          
H1JD     H      0.438500000000     0.676800000000     0.105700000000     0          
O1JD     O      0.465700000000     0.709180000000     0.160520000000     0          
S1D      S      0.251320000000     0.611820000000     0.111820000000     0          
C1D      C      0.269540000000     0.557460000000     0.153290000000     0          
C2D      C      0.277860000000     0.579210000000     0.123360000000     0          
C3D      C      0.305900000000     0.577600000000     0.103100000000     0          
H1D      H      0.323200000000     0.561500000000     0.105700000000     0          
O1D      O      0.290820000000     0.534300000000     0.160520000000     0          
C1ED     C      0.269540000000     0.653290000000     0.057460000000     0          
C2ED     C      0.277860000000     0.623360000000     0.079210000000     0          
C3ED     C      0.305900000000     0.603100000000     0.077600000000     0          
H1ED     H      0.323200000000     0.605700000000     0.061500000000     0          
O1ED     O      0.290820000000     0.660520000000     0.034300000000     0          
O1L      O      0.290820000000     0.660520000000     0.965700000000     0          
O1SC     O      0.339480000000     0.709180000000     0.965700000000     0          
S1       S      0.251320000000     0.388180000000     0.111820000000     0          
C1       C      0.269540000000     0.346710000000     0.057460000000     0          
C2       C      0.277860000000     0.376640000000     0.079210000000     0          
C3       C      0.305900000000     0.396900000000     0.077600000000     0          
H1       H      0.323200000000     0.394300000000     0.061500000000     0          
O1       O      0.290820000000     0.339480000000     0.034300000000     0          
C1JD     C      0.269540000000     0.442540000000     0.153290000000     0          
C2JD     C      0.277860000000     0.420790000000     0.123360000000     0          
C3JD     C      0.305900000000     0.422400000000     0.103100000000     0          
H1JD     H      0.323200000000     0.438500000000     0.105700000000     0          
O1JD     O      0.290820000000     0.465700000000     0.160520000000     0          
S1D      S      0.388180000000     0.251320000000     0.111820000000     0          
C1D      C      0.442540000000     0.269540000000     0.153290000000     0          
C2D      C      0.420790000000     0.277860000000     0.123360000000     0          
C3D      C      0.422400000000     0.305900000000     0.103100000000     0          
H1D      H      0.438500000000     0.323200000000     0.105700000000     0          
O1D      O      0.465700000000     0.290820000000     0.160520000000     0          
C1ED     C      0.346710000000     0.269540000000     0.057460000000     0          
C2ED     C      0.376640000000     0.277860000000     0.079210000000     0          
C3ED     C      0.396900000000     0.305900000000     0.077600000000     0          
H1ED     H      0.394300000000     0.323200000000     0.061500000000     0          
O1ED     O      0.339480000000     0.290820000000     0.034300000000     0          
O1L      O      0.339480000000     0.290820000000     0.965700000000     0          
O1SC     O      0.290820000000     0.339480000000     0.965700000000     0          
S1       S      0.611820000000     0.251320000000     0.111820000000     0          
C1       C      0.653290000000     0.269540000000     0.057460000000     0          
C2       C      0.623360000000     0.277860000000     0.079210000000     0          
C3       C      0.603100000000     0.305900000000     0.077600000000     0          
H1       H      0.605700000000     0.323200000000     0.061500000000     0          
O1       O      0.660520000000     0.290820000000     0.034300000000     0          
C1JD     C      0.557460000000     0.269540000000     0.153290000000     0          
C2JD     C      0.579210000000     0.277860000000     0.123360000000     0          
C3JD     C      0.577600000000     0.305900000000     0.103100000000     0          
H1JD     H      0.561500000000     0.323200000000     0.105700000000     0          
O1JD     O      0.534300000000     0.290820000000     0.160520000000     0          
S1D      S      0.748680000000     0.388180000000     0.111820000000     0          
C1D      C      0.730460000000     0.442540000000     0.153290000000     0          
C2D      C      0.722140000000     0.420790000000     0.123360000000     0          
C3D      C      0.694100000000     0.422400000000     0.103100000000     0          
H1D      H      0.676800000000     0.438500000000     0.105700000000     0          
O1D      O      0.709180000000     0.465700000000     0.160520000000     0          
C1ED     C      0.730460000000     0.346710000000     0.057460000000     0          
C2ED     C      0.722140000000     0.376640000000     0.079210000000     0          
C3ED     C      0.694100000000     0.396900000000     0.077600000000     0          
H1ED     H      0.676800000000     0.394300000000     0.061500000000     0          
O1ED     O      0.709180000000     0.339480000000     0.034300000000     0          
O1L      O      0.709180000000     0.339480000000     0.965700000000     0          
O1SC     O      0.660520000000     0.290820000000     0.965700000000     0          
S1       S      0.748680000000     0.388180000000     0.888180000000     0          
C1       C      0.730460000000     0.346710000000     0.942540000000     0          
C2       C      0.722140000000     0.376640000000     0.920790000000     0          
C3       C      0.694100000000     0.396900000000     0.922400000000     0          
H1       H      0.676800000000     0.394300000000     0.938500000000     0          
C1JD     C      0.730460000000     0.442540000000     0.846710000000     0          
C2JD     C      0.722140000000     0.420790000000     0.876640000000     0          
C3JD     C      0.694100000000     0.422400000000     0.896900000000     0          
H1JD     H      0.676800000000     0.438500000000     0.894300000000     0          
O1JD     O      0.709180000000     0.465700000000     0.839480000000     0          
S1D      S      0.611820000000     0.251320000000     0.888180000000     0          
C1D      C      0.557460000000     0.269540000000     0.846710000000     0          
C2D      C      0.579210000000     0.277860000000     0.876640000000     0          
C3D      C      0.577600000000     0.305900000000     0.896900000000     0          
H1D      H      0.561500000000     0.323200000000     0.894300000000     0          
O1D      O      0.534300000000     0.290820000000     0.839480000000     0          
C1ED     C      0.653290000000     0.269540000000     0.942540000000     0          
C2ED     C      0.623360000000     0.277860000000     0.920790000000     0          
C3ED     C      0.603100000000     0.305900000000     0.922400000000     0          
H1ED     H      0.605700000000     0.323200000000     0.938500000000     0          
S1       S      0.611820000000     0.748680000000     0.888180000000     0          
C1       C      0.653290000000     0.730460000000     0.942540000000     0          
C2       C      0.623360000000     0.722140000000     0.920790000000     0          
C3       C      0.603100000000     0.694100000000     0.922400000000     0          
H1       H      0.605700000000     0.676800000000     0.938500000000     0          
C1JD     C      0.557460000000     0.730460000000     0.846710000000     0          
C2JD     C      0.579210000000     0.722140000000     0.876640000000     0          
C3JD     C      0.577600000000     0.694100000000     0.896900000000     0          
H1JD     H      0.561500000000     0.676800000000     0.894300000000     0          
O1JD     O      0.534300000000     0.709180000000     0.839480000000     0          
S1D      S      0.748680000000     0.611820000000     0.888180000000     0          
C1D      C      0.730460000000     0.557460000000     0.846710000000     0          
C2D      C      0.722140000000     0.579210000000     0.876640000000     0          
C3D      C      0.694100000000     0.577600000000     0.896900000000     0          
H1D      H      0.676800000000     0.561500000000     0.894300000000     0          
O1D      O      0.709180000000     0.534300000000     0.839480000000     0          
C1ED     C      0.730460000000     0.653290000000     0.942540000000     0          
C2ED     C      0.722140000000     0.623360000000     0.920790000000     0          
C3ED     C      0.694100000000     0.603100000000     0.922400000000     0          
H1ED     H      0.676800000000     0.605700000000     0.938500000000     0          
S1       S      0.251320000000     0.611820000000     0.888180000000     0          
C1       C      0.269540000000     0.653290000000     0.942540000000     0          
C2       C      0.277860000000     0.623360000000     0.920790000000     0          
C3       C      0.305900000000     0.603100000000     0.922400000000     0          
H1       H      0.323200000000     0.605700000000     0.938500000000     0          
C1JD     C      0.269540000000     0.557460000000     0.846710000000     0          
C2JD     C      0.277860000000     0.579210000000     0.876640000000     0          
C3JD     C      0.305900000000     0.577600000000     0.896900000000     0          
H1JD     H      0.323200000000     0.561500000000     0.894300000000     0          
O1JD     O      0.290820000000     0.534300000000     0.839480000000     0          
S1D      S      0.388180000000     0.748680000000     0.888180000000     0          
C1D      C      0.442540000000     0.730460000000     0.846710000000     0          
C2D      C      0.420790000000     0.722140000000     0.876640000000     0          
C3D      C      0.422400000000     0.694100000000     0.896900000000     0          
H1D      H      0.438500000000     0.676800000000     0.894300000000     0          
O1D      O      0.465700000000     0.709180000000     0.839480000000     0          
C1ED     C      0.346710000000     0.730460000000     0.942540000000     0          
C2ED     C      0.376640000000     0.722140000000     0.920790000000     0          
C3ED     C      0.396900000000     0.694100000000     0.922400000000     0          
H1ED     H      0.394300000000     0.676800000000     0.938500000000     0          
S1       S      0.388180000000     0.251320000000     0.888180000000     0          
C1       C      0.346710000000     0.269540000000     0.942540000000     0          
C2       C      0.376640000000     0.277860000000     0.920790000000     0          
C3       C      0.396900000000     0.305900000000     0.922400000000     0          
H1       H      0.394300000000     0.323200000000     0.938500000000     0          
C1JD     C      0.442540000000     0.269540000000     0.846710000000     0          
C2JD     C      0.420790000000     0.277860000000     0.876640000000     0          
C3JD     C      0.422400000000     0.305900000000     0.896900000000     0          
H1JD     H      0.438500000000     0.323200000000     0.894300000000     0          
O1JD     O      0.465700000000     0.290820000000     0.839480000000     0          
S1D      S      0.251320000000     0.388180000000     0.888180000000     0          
C1D      C      0.269540000000     0.442540000000     0.846710000000     0          
C2D      C      0.277860000000     0.420790000000     0.876640000000     0          
C3D      C      0.305900000000     0.422400000000     0.896900000000     0          
H1D      H      0.323200000000     0.438500000000     0.894300000000     0          
O1D      O      0.290820000000     0.465700000000     0.839480000000     0          
C1ED     C      0.269540000000     0.346710000000     0.942540000000     0          
C2ED     C      0.277860000000     0.376640000000     0.920790000000     0          
C3ED     C      0.305900000000     0.396900000000     0.922400000000     0          
H1ED     H      0.323200000000     0.394300000000     0.938500000000     0          
S1D      S      0.611820000000     0.611820000000     0.248680000000     0          
C1D      C      0.653290000000     0.557460000000     0.230460000000     0          
C2D      C      0.623360000000     0.579210000000     0.222140000000     0          
C3D      C      0.603100000000     0.577600000000     0.194100000000     0          
H1D      H      0.605700000000     0.561500000000     0.176800000000     0          
O1D      O      0.660520000000     0.534300000000     0.209180000000     0          
C1ED     C      0.557460000000     0.653290000000     0.230460000000     0          
C2ED     C      0.579210000000     0.623360000000     0.222140000000     0          
C3ED     C      0.577600000000     0.603100000000     0.194100000000     0          
H1ED     H      0.561500000000     0.605700000000     0.176800000000     0          
O1ED     O      0.534300000000     0.660520000000     0.209180000000     0          
O1L      O      0.465700000000     0.660520000000     0.209180000000     0          
S1D      S      0.388180000000     0.611820000000     0.248680000000     0          
C1D      C      0.442540000000     0.653290000000     0.230460000000     0          
C2D      C      0.420790000000     0.623360000000     0.222140000000     0          
C3D      C      0.422400000000     0.603100000000     0.194100000000     0          
H1D      H      0.438500000000     0.605700000000     0.176800000000     0          
C1ED     C      0.346710000000     0.557460000000     0.230460000000     0          
C2ED     C      0.376640000000     0.579210000000     0.222140000000     0          
C3ED     C      0.396900000000     0.577600000000     0.194100000000     0          
H1ED     H      0.394300000000     0.561500000000     0.176800000000     0          
O1ED     O      0.339480000000     0.534300000000     0.209180000000     0          
O1L      O      0.339480000000     0.465700000000     0.209180000000     0          
S1D      S      0.388180000000     0.388180000000     0.248680000000     0          
C1D      C      0.346710000000     0.442540000000     0.230460000000     0          
C2D      C      0.376640000000     0.420790000000     0.222140000000     0          
C3D      C      0.396900000000     0.422400000000     0.194100000000     0          
H1D      H      0.394300000000     0.438500000000     0.176800000000     0          
C1ED     C      0.442540000000     0.346710000000     0.230460000000     0          
C2ED     C      0.420790000000     0.376640000000     0.222140000000     0          
C3ED     C      0.422400000000     0.396900000000     0.194100000000     0          
H1ED     H      0.438500000000     0.394300000000     0.176800000000     0          
O1ED     O      0.465700000000     0.339480000000     0.209180000000     0          
O1L      O      0.534300000000     0.339480000000     0.209180000000     0          
S1D      S      0.611820000000     0.388180000000     0.248680000000     0          
C1D      C      0.557460000000     0.346710000000     0.230460000000     0          
C2D      C      0.579210000000     0.376640000000     0.222140000000     0          
C3D      C      0.577600000000     0.396900000000     0.194100000000     0          
H1D      H      0.561500000000     0.394300000000     0.176800000000     0          
C1ED     C      0.653290000000     0.442540000000     0.230460000000     0          
C2ED     C      0.623360000000     0.420790000000     0.222140000000     0          
C3ED     C      0.603100000000     0.422400000000     0.194100000000     0          
H1ED     H      0.605700000000     0.438500000000     0.176800000000     0          
O1ED     O      0.660520000000     0.465700000000     0.209180000000     0          
S1D      S      0.611820000000     0.388180000000     0.751320000000     0          
C1D      C      0.653290000000     0.442540000000     0.769540000000     0          
C2D      C      0.623360000000     0.420790000000     0.777860000000     0          
C3D      C      0.603100000000     0.422400000000     0.805900000000     0          
H1D      H      0.605700000000     0.438500000000     0.823200000000     0          
O1D      O      0.660520000000     0.465700000000     0.790820000000     0          
C1ED     C      0.557460000000     0.346710000000     0.769540000000     0          
C2ED     C      0.579210000000     0.376640000000     0.777860000000     0          
C3ED     C      0.577600000000     0.396900000000     0.805900000000     0          
H1ED     H      0.561500000000     0.394300000000     0.823200000000     0          
O1ED     O      0.534300000000     0.339480000000     0.790820000000     0          
O1L      O      0.465700000000     0.339480000000     0.790820000000     0          
S1D      S      0.611820000000     0.611820000000     0.751320000000     0          
C1D      C      0.557460000000     0.653290000000     0.769540000000     0          
C2D      C      0.579210000000     0.623360000000     0.777860000000     0          
C3D      C      0.577600000000     0.603100000000     0.805900000000     0          
H1D      H      0.561500000000     0.605700000000     0.823200000000     0          
O1D      O      0.534300000000     0.660520000000     0.790820000000     0          
C1ED     C      0.653290000000     0.557460000000     0.769540000000     0          
C2ED     C      0.623360000000     0.579210000000     0.777860000000     0          
C3ED     C      0.603100000000     0.577600000000     0.805900000000     0          
H1ED     H      0.605700000000     0.561500000000     0.823200000000     0          
O1ED     O      0.660520000000     0.534300000000     0.790820000000     0          
S1D      S      0.388180000000     0.611820000000     0.751320000000     0          
C1D      C      0.346710000000     0.557460000000     0.769540000000     0          
C2D      C      0.376640000000     0.579210000000     0.777860000000     0          
C3D      C      0.396900000000     0.577600000000     0.805900000000     0          
H1D      H      0.394300000000     0.561500000000     0.823200000000     0          
O1D      O      0.339480000000     0.534300000000     0.790820000000     0          
C1ED     C      0.442540000000     0.653290000000     0.769540000000     0          
C2ED     C      0.420790000000     0.623360000000     0.777860000000     0          
C3ED     C      0.422400000000     0.603100000000     0.805900000000     0          
H1ED     H      0.438500000000     0.605700000000     0.823200000000     0          
O1ED     O      0.465700000000     0.660520000000     0.790820000000     0          
S1D      S      0.388180000000     0.388180000000     0.751320000000     0          
C1D      C      0.442540000000     0.346710000000     0.769540000000     0          
C2D      C      0.420790000000     0.376640000000     0.777860000000     0          
C3D      C      0.422400000000     0.396900000000     0.805900000000     0          
H1D      H      0.438500000000     0.394300000000     0.823200000000     0          
C1ED     C      0.346710000000     0.442540000000     0.769540000000     0          
C2ED     C      0.376640000000     0.420790000000     0.777860000000     0          
C3ED     C      0.396900000000     0.422400000000     0.805900000000     0          
H1ED     H      0.394300000000     0.438500000000     0.823200000000     0          
O1ED     O      0.339480000000     0.465700000000     0.790820000000     0          


