data_XICNOO01

_audit_creation_method RASPA-1.0
_audit_creation_date 2020-4-3
_audit_author_name 'Rocio Bueno-Perez'

_cell_length_a    39.03
_cell_length_b    39.03
_cell_length_c    39.03
_cell_angle_alpha 90
_cell_angle_beta  90
_cell_angle_gamma 90
_cell_volume      59456

_symmetry_cell_setting          cubic
_symmetry_space_group_name_Hall 'P 1'
_symmetry_space_group_name_H-M  'P 1'
_symmetry_Int_Tables_number     1

_symmetry_equiv_pos_as_xyz 'x,y,z'

loop_
_atom_site_label
_atom_site_type_symbol
_atom_site_fract_x
_atom_site_fract_y
_atom_site_fract_z
_atom_site_charge
Zr1      Zr     0.217965000000     0.282035000000     0.045343000000     0          
Zr2      Zr     0.205533000000     0.205533000000     0.000000000000     0          
S1       S      0.248910000000     0.110920000000     0.110920000000     0          
C1       C      0.230060000000     0.153110000000     0.057380000000     0          
C2       C      0.221030000000     0.124010000000     0.079920000000     0          
C3       C      0.192300000000     0.104500000000     0.079300000000     0          
H1       H      0.174600000000     0.107600000000     0.063700000000     0          
O1       O      0.208870000000     0.160710000000     0.034170000000     0          
O2       O      0.228660000000     0.228660000000     0.044400000000     0          
O3       O      0.257580000000     0.168630000000     0.063830000000     0          
O4       O      0.220600000000     0.279400000000     0.100990000000     0          
O5       O      0.178600000000     0.321400000000     0.044600000000     0          
O6       O      0.240080000000     0.303200000000     0.000000000000     0          
C1JD     C      0.230060000000     0.057380000000     0.153110000000     0          
C2JD     C      0.221030000000     0.079920000000     0.124010000000     0          
C3JD     C      0.192300000000     0.079300000000     0.104500000000     0          
H1JD     H      0.174600000000     0.063700000000     0.107600000000     0          
O1JD     O      0.208870000000     0.034170000000     0.160710000000     0          
O3JD     O      0.257580000000     0.063830000000     0.168630000000     0          
S1D      S      0.110920000000     0.248910000000     0.110920000000     0          
C1D      C      0.057380000000     0.230060000000     0.153110000000     0          
C2D      C      0.079920000000     0.221030000000     0.124010000000     0          
C3D      C      0.079300000000     0.192300000000     0.104500000000     0          
H1D      H      0.063700000000     0.174600000000     0.107600000000     0          
O1D      O      0.034170000000     0.208870000000     0.160710000000     0          
O3D      O      0.063830000000     0.257580000000     0.168630000000     0          
C1ED     C      0.153110000000     0.230060000000     0.057380000000     0          
C2ED     C      0.124010000000     0.221030000000     0.079920000000     0          
C3ED     C      0.104500000000     0.192300000000     0.079300000000     0          
H1ED     H      0.107600000000     0.174600000000     0.063700000000     0          
O1ED     O      0.160710000000     0.208870000000     0.034170000000     0          
O3ED     O      0.168630000000     0.257580000000     0.063830000000     0          
Zr1UB    Zr     0.282035000000     0.217965000000     0.045343000000     0          
O2UB     O      0.271340000000     0.271340000000     0.044400000000     0          
O4UB     O      0.279400000000     0.220600000000     0.100990000000     0          
O5UB     O      0.321400000000     0.178600000000     0.044600000000     0          
O6UB     O      0.259920000000     0.196800000000     0.000000000000     0          
Zr1H     Zr     0.282035000000     0.045343000000     0.217965000000     0          
Zr1L     Zr     0.282035000000     0.217965000000     0.954657000000     0          
Zr1CA    Zr     0.045343000000     0.282035000000     0.217965000000     0          
Zr1GC    Zr     0.217965000000     0.282035000000     0.954657000000     0          
Zr2D     Zr     0.000000000000     0.205533000000     0.205530000000     0          
Zr2H     Zr     0.205533000000     0.000000000000     0.205530000000     0          
Zr2UB    Zr     0.294467000000     0.294467000000     0.000000000000     0          
O1L      O      0.160710000000     0.208870000000     0.965830000000     0          
O1SC     O      0.208870000000     0.160710000000     0.965830000000     0          
O2L      O      0.228660000000     0.228660000000     0.955600000000     0          
O3UB     O      0.242420000000     0.331370000000     0.063830000000     0          
O3XF     O      0.331370000000     0.242420000000     0.063830000000     0          
O6L      O      0.303200000000     0.240080000000     0.000000000000     0          
O6GC     O      0.196800000000     0.259920000000     0.000000000000     0          
Zr1      Zr     0.717965000000     0.217965000000     0.045343000000     0          
Zr2      Zr     0.794467000000     0.205533000000     0.000000000000     0          
S1       S      0.889080000000     0.248910000000     0.110920000000     0          
C1       C      0.846890000000     0.230060000000     0.057380000000     0          
C2       C      0.875990000000     0.221030000000     0.079920000000     0          
C3       C      0.895500000000     0.192300000000     0.079300000000     0          
H1       H      0.892400000000     0.174600000000     0.063700000000     0          
O1       O      0.839290000000     0.208870000000     0.034170000000     0          
O2       O      0.771340000000     0.228660000000     0.044400000000     0          
O3       O      0.831370000000     0.257580000000     0.063830000000     0          
O4       O      0.720600000000     0.220600000000     0.100990000000     0          
O5       O      0.678600000000     0.178600000000     0.044600000000     0          
O6       O      0.696800000000     0.240080000000     0.000000000000     0          
C1JD     C      0.942620000000     0.230060000000     0.153110000000     0          
C2JD     C      0.920080000000     0.221030000000     0.124010000000     0          
C3JD     C      0.920700000000     0.192300000000     0.104500000000     0          
H1JD     H      0.936300000000     0.174600000000     0.107600000000     0          
O1JD     O      0.965830000000     0.208870000000     0.160710000000     0          
O3JD     O      0.936170000000     0.257580000000     0.168630000000     0          
S1D      S      0.751090000000     0.110920000000     0.110920000000     0          
C1D      C      0.769940000000     0.057380000000     0.153110000000     0          
C2D      C      0.778970000000     0.079920000000     0.124010000000     0          
C3D      C      0.807700000000     0.079300000000     0.104500000000     0          
H1D      H      0.825400000000     0.063700000000     0.107600000000     0          
O1D      O      0.791130000000     0.034170000000     0.160710000000     0          
O3D      O      0.742420000000     0.063830000000     0.168630000000     0          
C1ED     C      0.769940000000     0.153110000000     0.057380000000     0          
C2ED     C      0.778970000000     0.124010000000     0.079920000000     0          
C3ED     C      0.807700000000     0.104500000000     0.079300000000     0          
H1ED     H      0.825400000000     0.107600000000     0.063700000000     0          
O1ED     O      0.791130000000     0.160710000000     0.034170000000     0          
O3ED     O      0.742420000000     0.168630000000     0.063830000000     0          
Zr1UB    Zr     0.782035000000     0.282035000000     0.045343000000     0          
O2UB     O      0.728660000000     0.271340000000     0.044400000000     0          
O4UB     O      0.779400000000     0.279400000000     0.100990000000     0          
O5UB     O      0.821400000000     0.321400000000     0.044600000000     0          
O6UB     O      0.803200000000     0.259920000000     0.000000000000     0          
Zr1H     Zr     0.954657000000     0.282035000000     0.217965000000     0          
Zr1L     Zr     0.782035000000     0.282035000000     0.954657000000     0          
Zr1CA    Zr     0.717965000000     0.045343000000     0.217965000000     0          
Zr1GC    Zr     0.717965000000     0.217965000000     0.954657000000     0          
Zr2D     Zr     0.794467000000     0.000000000000     0.205530000000     0          
Zr2UB    Zr     0.705533000000     0.294467000000     0.000000000000     0          
O1L      O      0.791130000000     0.160710000000     0.965830000000     0          
O1SC     O      0.839290000000     0.208870000000     0.965830000000     0          
O2L      O      0.771340000000     0.228660000000     0.955600000000     0          
O3UB     O      0.668630000000     0.242420000000     0.063830000000     0          
O3XF     O      0.757580000000     0.331370000000     0.063830000000     0          
O6L      O      0.759920000000     0.303200000000     0.000000000000     0          
O6GC     O      0.740080000000     0.196800000000     0.000000000000     0          
Zr1      Zr     0.782035000000     0.717965000000     0.045343000000     0          
Zr2      Zr     0.794467000000     0.794467000000     0.000000000000     0          
S1       S      0.751090000000     0.889080000000     0.110920000000     0          
C1       C      0.769940000000     0.846890000000     0.057380000000     0          
C2       C      0.778970000000     0.875990000000     0.079920000000     0          
C3       C      0.807700000000     0.895500000000     0.079300000000     0          
H1       H      0.825400000000     0.892400000000     0.063700000000     0          
O1       O      0.791130000000     0.839290000000     0.034170000000     0          
O2       O      0.771340000000     0.771340000000     0.044400000000     0          
O3       O      0.742420000000     0.831370000000     0.063830000000     0          
O4       O      0.779400000000     0.720600000000     0.100990000000     0          
O5       O      0.821400000000     0.678600000000     0.044600000000     0          
O6       O      0.759920000000     0.696800000000     0.000000000000     0          
C1JD     C      0.769940000000     0.942620000000     0.153110000000     0          
C2JD     C      0.778970000000     0.920080000000     0.124010000000     0          
C3JD     C      0.807700000000     0.920700000000     0.104500000000     0          
H1JD     H      0.825400000000     0.936300000000     0.107600000000     0          
O1JD     O      0.791130000000     0.965830000000     0.160710000000     0          
O3JD     O      0.742420000000     0.936170000000     0.168630000000     0          
S1D      S      0.889080000000     0.751090000000     0.110920000000     0          
C1D      C      0.942620000000     0.769940000000     0.153110000000     0          
C2D      C      0.920080000000     0.778970000000     0.124010000000     0          
C3D      C      0.920700000000     0.807700000000     0.104500000000     0          
H1D      H      0.936300000000     0.825400000000     0.107600000000     0          
O1D      O      0.965830000000     0.791130000000     0.160710000000     0          
O3D      O      0.936170000000     0.742420000000     0.168630000000     0          
C1ED     C      0.846890000000     0.769940000000     0.057380000000     0          
C2ED     C      0.875990000000     0.778970000000     0.079920000000     0          
C3ED     C      0.895500000000     0.807700000000     0.079300000000     0          
H1ED     H      0.892400000000     0.825400000000     0.063700000000     0          
O1ED     O      0.839290000000     0.791130000000     0.034170000000     0          
O3ED     O      0.831370000000     0.742420000000     0.063830000000     0          
Zr1UB    Zr     0.717965000000     0.782035000000     0.045343000000     0          
O2UB     O      0.728660000000     0.728660000000     0.044400000000     0          
O4UB     O      0.720600000000     0.779400000000     0.100990000000     0          
O5UB     O      0.678600000000     0.821400000000     0.044600000000     0          
O6UB     O      0.740080000000     0.803200000000     0.000000000000     0          
Zr1H     Zr     0.717965000000     0.954657000000     0.217965000000     0          
Zr1L     Zr     0.717965000000     0.782035000000     0.954657000000     0          
Zr1CA    Zr     0.954657000000     0.717965000000     0.217965000000     0          
Zr1GC    Zr     0.782035000000     0.717965000000     0.954657000000     0          
Zr2D     Zr     0.000000000000     0.794467000000     0.205530000000     0          
Zr2UB    Zr     0.705533000000     0.705533000000     0.000000000000     0          
O1L      O      0.839290000000     0.791130000000     0.965830000000     0          
O1SC     O      0.791130000000     0.839290000000     0.965830000000     0          
O2L      O      0.771340000000     0.771340000000     0.955600000000     0          
O3UB     O      0.757580000000     0.668630000000     0.063830000000     0          
O3XF     O      0.668630000000     0.757580000000     0.063830000000     0          
O6L      O      0.696800000000     0.759920000000     0.000000000000     0          
O6GC     O      0.803200000000     0.740080000000     0.000000000000     0          
Zr1      Zr     0.282035000000     0.782035000000     0.045343000000     0          
Zr2      Zr     0.205533000000     0.794467000000     0.000000000000     0          
S1       S      0.110920000000     0.751090000000     0.110920000000     0          
C1       C      0.153110000000     0.769940000000     0.057380000000     0          
C2       C      0.124010000000     0.778970000000     0.079920000000     0          
C3       C      0.104500000000     0.807700000000     0.079300000000     0          
H1       H      0.107600000000     0.825400000000     0.063700000000     0          
O1       O      0.160710000000     0.791130000000     0.034170000000     0          
O2       O      0.228660000000     0.771340000000     0.044400000000     0          
O3       O      0.168630000000     0.742420000000     0.063830000000     0          
O4       O      0.279400000000     0.779400000000     0.100990000000     0          
O5       O      0.321400000000     0.821400000000     0.044600000000     0          
O6       O      0.303200000000     0.759920000000     0.000000000000     0          
C1JD     C      0.057380000000     0.769940000000     0.153110000000     0          
C2JD     C      0.079920000000     0.778970000000     0.124010000000     0          
C3JD     C      0.079300000000     0.807700000000     0.104500000000     0          
H1JD     H      0.063700000000     0.825400000000     0.107600000000     0          
O1JD     O      0.034170000000     0.791130000000     0.160710000000     0          
O3JD     O      0.063830000000     0.742420000000     0.168630000000     0          
S1D      S      0.248910000000     0.889080000000     0.110920000000     0          
C1D      C      0.230060000000     0.942620000000     0.153110000000     0          
C2D      C      0.221030000000     0.920080000000     0.124010000000     0          
C3D      C      0.192300000000     0.920700000000     0.104500000000     0          
H1D      H      0.174600000000     0.936300000000     0.107600000000     0          
O1D      O      0.208870000000     0.965830000000     0.160710000000     0          
O3D      O      0.257580000000     0.936170000000     0.168630000000     0          
C1ED     C      0.230060000000     0.846890000000     0.057380000000     0          
C2ED     C      0.221030000000     0.875990000000     0.079920000000     0          
C3ED     C      0.192300000000     0.895500000000     0.079300000000     0          
H1ED     H      0.174600000000     0.892400000000     0.063700000000     0          
O1ED     O      0.208870000000     0.839290000000     0.034170000000     0          
O3ED     O      0.257580000000     0.831370000000     0.063830000000     0          
Zr1UB    Zr     0.217965000000     0.717965000000     0.045343000000     0          
O2UB     O      0.271340000000     0.728660000000     0.044400000000     0          
O4UB     O      0.220600000000     0.720600000000     0.100990000000     0          
O5UB     O      0.178600000000     0.678600000000     0.044600000000     0          
O6UB     O      0.196800000000     0.740080000000     0.000000000000     0          
Zr1H     Zr     0.045343000000     0.717965000000     0.217965000000     0          
Zr1L     Zr     0.217965000000     0.717965000000     0.954657000000     0          
Zr1CA    Zr     0.282035000000     0.954657000000     0.217965000000     0          
Zr1GC    Zr     0.282035000000     0.782035000000     0.954657000000     0          
Zr2UB    Zr     0.294467000000     0.705533000000     0.000000000000     0          
O1L      O      0.208870000000     0.839290000000     0.965830000000     0          
O1SC     O      0.160710000000     0.791130000000     0.965830000000     0          
O2L      O      0.228660000000     0.771340000000     0.955600000000     0          
O3UB     O      0.331370000000     0.757580000000     0.063830000000     0          
O3XF     O      0.242420000000     0.668630000000     0.063830000000     0          
O6L      O      0.240080000000     0.696800000000     0.000000000000     0          
O6GC     O      0.259920000000     0.803200000000     0.000000000000     0          
S1       S      0.248910000000     0.889080000000     0.889080000000     0          
C1       C      0.230060000000     0.846890000000     0.942620000000     0          
C2       C      0.221030000000     0.875990000000     0.920080000000     0          
C3       C      0.192300000000     0.895500000000     0.920700000000     0          
H1       H      0.174600000000     0.892400000000     0.936300000000     0          
O3       O      0.257580000000     0.831370000000     0.936170000000     0          
O4       O      0.220600000000     0.720600000000     0.899010000000     0          
O5       O      0.178600000000     0.678600000000     0.955400000000     0          
C1JD     C      0.230060000000     0.942620000000     0.846890000000     0          
C2JD     C      0.221030000000     0.920080000000     0.875990000000     0          
C3JD     C      0.192300000000     0.920700000000     0.895500000000     0          
H1JD     H      0.174600000000     0.936300000000     0.892400000000     0          
O1JD     O      0.208870000000     0.965830000000     0.839290000000     0          
O3JD     O      0.257580000000     0.936170000000     0.831370000000     0          
S1D      S      0.110920000000     0.751090000000     0.889080000000     0          
C1D      C      0.057380000000     0.769940000000     0.846890000000     0          
C2D      C      0.079920000000     0.778970000000     0.875990000000     0          
C3D      C      0.079300000000     0.807700000000     0.895500000000     0          
H1D      H      0.063700000000     0.825400000000     0.892400000000     0          
O1D      O      0.034170000000     0.791130000000     0.839290000000     0          
O3D      O      0.063830000000     0.742420000000     0.831370000000     0          
C1ED     C      0.153110000000     0.769940000000     0.942620000000     0          
C2ED     C      0.124010000000     0.778970000000     0.920080000000     0          
C3ED     C      0.104500000000     0.807700000000     0.920700000000     0          
H1ED     H      0.107600000000     0.825400000000     0.936300000000     0          
O3ED     O      0.168630000000     0.742420000000     0.936170000000     0          
O2UB     O      0.271340000000     0.728660000000     0.955600000000     0          
O4UB     O      0.279400000000     0.779400000000     0.899010000000     0          
O5UB     O      0.321400000000     0.821400000000     0.955400000000     0          
Zr1H     Zr     0.282035000000     0.954657000000     0.782035000000     0          
Zr1CA    Zr     0.045343000000     0.717965000000     0.782035000000     0          
Zr2D     Zr     0.000000000000     0.794467000000     0.794470000000     0          
Zr2H     Zr     0.205533000000     0.000000000000     0.794470000000     0          
O3UB     O      0.242420000000     0.668630000000     0.936170000000     0          
O3XF     O      0.331370000000     0.757580000000     0.936170000000     0          
S1       S      0.110920000000     0.248910000000     0.889080000000     0          
C1       C      0.153110000000     0.230060000000     0.942620000000     0          
C2       C      0.124010000000     0.221030000000     0.920080000000     0          
C3       C      0.104500000000     0.192300000000     0.920700000000     0          
H1       H      0.107600000000     0.174600000000     0.936300000000     0          
O3       O      0.168630000000     0.257580000000     0.936170000000     0          
O4       O      0.279400000000     0.220600000000     0.899010000000     0          
O5       O      0.321400000000     0.178600000000     0.955400000000     0          
C1JD     C      0.057380000000     0.230060000000     0.846890000000     0          
C2JD     C      0.079920000000     0.221030000000     0.875990000000     0          
C3JD     C      0.079300000000     0.192300000000     0.895500000000     0          
H1JD     H      0.063700000000     0.174600000000     0.892400000000     0          
O1JD     O      0.034170000000     0.208870000000     0.839290000000     0          
O3JD     O      0.063830000000     0.257580000000     0.831370000000     0          
S1D      S      0.248910000000     0.110920000000     0.889080000000     0          
C1D      C      0.230060000000     0.057380000000     0.846890000000     0          
C2D      C      0.221030000000     0.079920000000     0.875990000000     0          
C3D      C      0.192300000000     0.079300000000     0.895500000000     0          
H1D      H      0.174600000000     0.063700000000     0.892400000000     0          
O1D      O      0.208870000000     0.034170000000     0.839290000000     0          
O3D      O      0.257580000000     0.063830000000     0.831370000000     0          
C1ED     C      0.230060000000     0.153110000000     0.942620000000     0          
C2ED     C      0.221030000000     0.124010000000     0.920080000000     0          
C3ED     C      0.192300000000     0.104500000000     0.920700000000     0          
H1ED     H      0.174600000000     0.107600000000     0.936300000000     0          
O3ED     O      0.257580000000     0.168630000000     0.936170000000     0          
O2UB     O      0.271340000000     0.271340000000     0.955600000000     0          
O4UB     O      0.220600000000     0.279400000000     0.899010000000     0          
O5UB     O      0.178600000000     0.321400000000     0.955400000000     0          
Zr1H     Zr     0.045343000000     0.282035000000     0.782035000000     0          
Zr1CA    Zr     0.282035000000     0.045343000000     0.782035000000     0          
Zr2H     Zr     0.000000000000     0.205533000000     0.794470000000     0          
O3UB     O      0.331370000000     0.242420000000     0.936170000000     0          
O3XF     O      0.242420000000     0.331370000000     0.936170000000     0          
S1       S      0.751090000000     0.110920000000     0.889080000000     0          
C1       C      0.769940000000     0.153110000000     0.942620000000     0          
C2       C      0.778970000000     0.124010000000     0.920080000000     0          
C3       C      0.807700000000     0.104500000000     0.920700000000     0          
H1       H      0.825400000000     0.107600000000     0.936300000000     0          
O3       O      0.742420000000     0.168630000000     0.936170000000     0          
O4       O      0.779400000000     0.279400000000     0.899010000000     0          
O5       O      0.821400000000     0.321400000000     0.955400000000     0          
C1JD     C      0.769940000000     0.057380000000     0.846890000000     0          
C2JD     C      0.778970000000     0.079920000000     0.875990000000     0          
C3JD     C      0.807700000000     0.079300000000     0.895500000000     0          
H1JD     H      0.825400000000     0.063700000000     0.892400000000     0          
O1JD     O      0.791130000000     0.034170000000     0.839290000000     0          
O3JD     O      0.742420000000     0.063830000000     0.831370000000     0          
S1D      S      0.889080000000     0.248910000000     0.889080000000     0          
C1D      C      0.942620000000     0.230060000000     0.846890000000     0          
C2D      C      0.920080000000     0.221030000000     0.875990000000     0          
C3D      C      0.920700000000     0.192300000000     0.895500000000     0          
H1D      H      0.936300000000     0.174600000000     0.892400000000     0          
O1D      O      0.965830000000     0.208870000000     0.839290000000     0          
O3D      O      0.936170000000     0.257580000000     0.831370000000     0          
C1ED     C      0.846890000000     0.230060000000     0.942620000000     0          
C2ED     C      0.875990000000     0.221030000000     0.920080000000     0          
C3ED     C      0.895500000000     0.192300000000     0.920700000000     0          
H1ED     H      0.892400000000     0.174600000000     0.936300000000     0          
O3ED     O      0.831370000000     0.257580000000     0.936170000000     0          
O2UB     O      0.728660000000     0.271340000000     0.955600000000     0          
O4UB     O      0.720600000000     0.220600000000     0.899010000000     0          
O5UB     O      0.678600000000     0.178600000000     0.955400000000     0          
Zr1H     Zr     0.717965000000     0.045343000000     0.782035000000     0          
Zr1CA    Zr     0.954657000000     0.282035000000     0.782035000000     0          
Zr2H     Zr     0.794467000000     0.000000000000     0.794470000000     0          
O3UB     O      0.757580000000     0.331370000000     0.936170000000     0          
O3XF     O      0.668630000000     0.242420000000     0.936170000000     0          
S1       S      0.889080000000     0.751090000000     0.889080000000     0          
C1       C      0.846890000000     0.769940000000     0.942620000000     0          
C2       C      0.875990000000     0.778970000000     0.920080000000     0          
C3       C      0.895500000000     0.807700000000     0.920700000000     0          
H1       H      0.892400000000     0.825400000000     0.936300000000     0          
O3       O      0.831370000000     0.742420000000     0.936170000000     0          
O4       O      0.720600000000     0.779400000000     0.899010000000     0          
O5       O      0.678600000000     0.821400000000     0.955400000000     0          
C1JD     C      0.942620000000     0.769940000000     0.846890000000     0          
C2JD     C      0.920080000000     0.778970000000     0.875990000000     0          
C3JD     C      0.920700000000     0.807700000000     0.895500000000     0          
H1JD     H      0.936300000000     0.825400000000     0.892400000000     0          
O1JD     O      0.965830000000     0.791130000000     0.839290000000     0          
O3JD     O      0.936170000000     0.742420000000     0.831370000000     0          
S1D      S      0.751090000000     0.889080000000     0.889080000000     0          
C1D      C      0.769940000000     0.942620000000     0.846890000000     0          
C2D      C      0.778970000000     0.920080000000     0.875990000000     0          
C3D      C      0.807700000000     0.920700000000     0.895500000000     0          
H1D      H      0.825400000000     0.936300000000     0.892400000000     0          
O1D      O      0.791130000000     0.965830000000     0.839290000000     0          
O3D      O      0.742420000000     0.936170000000     0.831370000000     0          
C1ED     C      0.769940000000     0.846890000000     0.942620000000     0          
C2ED     C      0.778970000000     0.875990000000     0.920080000000     0          
C3ED     C      0.807700000000     0.895500000000     0.920700000000     0          
H1ED     H      0.825400000000     0.892400000000     0.936300000000     0          
O3ED     O      0.742420000000     0.831370000000     0.936170000000     0          
O2UB     O      0.728660000000     0.728660000000     0.955600000000     0          
O4UB     O      0.779400000000     0.720600000000     0.899010000000     0          
O5UB     O      0.821400000000     0.678600000000     0.955400000000     0          
Zr1H     Zr     0.954657000000     0.717965000000     0.782035000000     0          
Zr1CA    Zr     0.717965000000     0.954657000000     0.782035000000     0          
O3UB     O      0.668630000000     0.757580000000     0.936170000000     0          
O3XF     O      0.757580000000     0.668630000000     0.936170000000     0          
Zr1      Zr     0.045343000000     0.217965000000     0.282035000000     0          
O2       O      0.044400000000     0.228660000000     0.228660000000     0          
O4       O      0.100990000000     0.220600000000     0.279400000000     0          
O5       O      0.044600000000     0.178600000000     0.321400000000     0          
O6       O      0.000000000000     0.240080000000     0.303200000000     0          
S1D      S      0.110920000000     0.110920000000     0.248910000000     0          
C1D      C      0.153110000000     0.057380000000     0.230060000000     0          
C2D      C      0.124010000000     0.079920000000     0.221030000000     0          
C3D      C      0.104500000000     0.079300000000     0.192300000000     0          
H1D      H      0.107600000000     0.063700000000     0.174600000000     0          
O1D      O      0.160710000000     0.034170000000     0.208870000000     0          
O3D      O      0.168630000000     0.063830000000     0.257580000000     0          
C1ED     C      0.057380000000     0.153110000000     0.230060000000     0          
C2ED     C      0.079920000000     0.124010000000     0.221030000000     0          
C3ED     C      0.079300000000     0.104500000000     0.192300000000     0          
H1ED     H      0.063700000000     0.107600000000     0.174600000000     0          
O1ED     O      0.034170000000     0.160710000000     0.208870000000     0          
O3ED     O      0.063830000000     0.168630000000     0.257580000000     0          
O2UB     O      0.044400000000     0.271340000000     0.271340000000     0          
O4UB     O      0.100990000000     0.279400000000     0.220600000000     0          
O5UB     O      0.044600000000     0.321400000000     0.178600000000     0          
O6UB     O      0.000000000000     0.259920000000     0.196800000000     0          
Zr1CA    Zr     0.217965000000     0.045343000000     0.282035000000     0          
Zr1GC    Zr     0.954657000000     0.217965000000     0.282035000000     0          
Zr2UB    Zr     0.000000000000     0.294467000000     0.294467000000     0          
O1L      O      0.965830000000     0.160710000000     0.208870000000     0          
O2L      O      0.955600000000     0.228660000000     0.228660000000     0          
O3UB     O      0.063830000000     0.242420000000     0.331370000000     0          
O3XF     O      0.063830000000     0.331370000000     0.242420000000     0          
O6L      O      0.000000000000     0.303200000000     0.240080000000     0          
O6GC     O      0.000000000000     0.196800000000     0.259920000000     0          
Zr1      Zr     0.782035000000     0.045343000000     0.282035000000     0          
O2       O      0.771340000000     0.044400000000     0.228660000000     0          
O4       O      0.779400000000     0.100990000000     0.279400000000     0          
O5       O      0.821400000000     0.044600000000     0.321400000000     0          
O6       O      0.759920000000     0.000000000000     0.303200000000     0          
S1D      S      0.889080000000     0.110920000000     0.248910000000     0          
C1D      C      0.942620000000     0.153110000000     0.230060000000     0          
C2D      C      0.920080000000     0.124010000000     0.221030000000     0          
C3D      C      0.920700000000     0.104500000000     0.192300000000     0          
H1D      H      0.936300000000     0.107600000000     0.174600000000     0          
O3D      O      0.936170000000     0.168630000000     0.257580000000     0          
C1ED     C      0.846890000000     0.057380000000     0.230060000000     0          
C2ED     C      0.875990000000     0.079920000000     0.221030000000     0          
C3ED     C      0.895500000000     0.079300000000     0.192300000000     0          
H1ED     H      0.892400000000     0.063700000000     0.174600000000     0          
O1ED     O      0.839290000000     0.034170000000     0.208870000000     0          
O3ED     O      0.831370000000     0.063830000000     0.257580000000     0          
O2UB     O      0.728660000000     0.044400000000     0.271340000000     0          
O4UB     O      0.720600000000     0.100990000000     0.220600000000     0          
O5UB     O      0.678600000000     0.044600000000     0.178600000000     0          
O6UB     O      0.740080000000     0.000000000000     0.196800000000     0          
Zr1GC    Zr     0.782035000000     0.954657000000     0.282035000000     0          
Zr2UB    Zr     0.705533000000     0.000000000000     0.294467000000     0          
O1L      O      0.839290000000     0.965830000000     0.208870000000     0          
O2L      O      0.771340000000     0.955600000000     0.228660000000     0          
O3UB     O      0.757580000000     0.063830000000     0.331370000000     0          
O3XF     O      0.668630000000     0.063830000000     0.242420000000     0          
O6L      O      0.696800000000     0.000000000000     0.240080000000     0          
O6GC     O      0.803200000000     0.000000000000     0.259920000000     0          
Zr1      Zr     0.954657000000     0.782035000000     0.282035000000     0          
O2       O      0.955600000000     0.771340000000     0.228660000000     0          
O4       O      0.899010000000     0.779400000000     0.279400000000     0          
O5       O      0.955400000000     0.821400000000     0.321400000000     0          
O6       O      0.000000000000     0.759920000000     0.303200000000     0          
S1D      S      0.889080000000     0.889080000000     0.248910000000     0          
C1D      C      0.846890000000     0.942620000000     0.230060000000     0          
C2D      C      0.875990000000     0.920080000000     0.221030000000     0          
C3D      C      0.895500000000     0.920700000000     0.192300000000     0          
H1D      H      0.892400000000     0.936300000000     0.174600000000     0          
O3D      O      0.831370000000     0.936170000000     0.257580000000     0          
C1ED     C      0.942620000000     0.846890000000     0.230060000000     0          
C2ED     C      0.920080000000     0.875990000000     0.221030000000     0          
C3ED     C      0.920700000000     0.895500000000     0.192300000000     0          
H1ED     H      0.936300000000     0.892400000000     0.174600000000     0          
O1ED     O      0.965830000000     0.839290000000     0.208870000000     0          
O3ED     O      0.936170000000     0.831370000000     0.257580000000     0          
O2UB     O      0.955600000000     0.728660000000     0.271340000000     0          
O4UB     O      0.899010000000     0.720600000000     0.220600000000     0          
O5UB     O      0.955400000000     0.678600000000     0.178600000000     0          
O6UB     O      0.000000000000     0.740080000000     0.196800000000     0          
Zr1GC    Zr     0.045343000000     0.782035000000     0.282035000000     0          
Zr2UB    Zr     0.000000000000     0.705533000000     0.294467000000     0          
O1L      O      0.034170000000     0.839290000000     0.208870000000     0          
O2L      O      0.044400000000     0.771340000000     0.228660000000     0          
O3UB     O      0.936170000000     0.757580000000     0.331370000000     0          
O3XF     O      0.936170000000     0.668630000000     0.242420000000     0          
O6L      O      0.000000000000     0.696800000000     0.240080000000     0          
O6GC     O      0.000000000000     0.803200000000     0.259920000000     0          
Zr1      Zr     0.217965000000     0.954657000000     0.282035000000     0          
O2       O      0.228660000000     0.955600000000     0.228660000000     0          
O4       O      0.220600000000     0.899010000000     0.279400000000     0          
O5       O      0.178600000000     0.955400000000     0.321400000000     0          
O6       O      0.240080000000     0.000000000000     0.303200000000     0          
S1D      S      0.110920000000     0.889080000000     0.248910000000     0          
C1D      C      0.057380000000     0.846890000000     0.230060000000     0          
C2D      C      0.079920000000     0.875990000000     0.221030000000     0          
C3D      C      0.079300000000     0.895500000000     0.192300000000     0          
H1D      H      0.063700000000     0.892400000000     0.174600000000     0          
O3D      O      0.063830000000     0.831370000000     0.257580000000     0          
C1ED     C      0.153110000000     0.942620000000     0.230060000000     0          
C2ED     C      0.124010000000     0.920080000000     0.221030000000     0          
C3ED     C      0.104500000000     0.920700000000     0.192300000000     0          
H1ED     H      0.107600000000     0.936300000000     0.174600000000     0          
O1ED     O      0.160710000000     0.965830000000     0.208870000000     0          
O3ED     O      0.168630000000     0.936170000000     0.257580000000     0          
O2UB     O      0.271340000000     0.955600000000     0.271340000000     0          
O4UB     O      0.279400000000     0.899010000000     0.220600000000     0          
O5UB     O      0.321400000000     0.955400000000     0.178600000000     0          
O6UB     O      0.259920000000     0.000000000000     0.196800000000     0          
Zr2UB    Zr     0.294467000000     0.000000000000     0.294467000000     0          
O2L      O      0.228660000000     0.044400000000     0.228660000000     0          
O3UB     O      0.242420000000     0.936170000000     0.331370000000     0          
O3XF     O      0.331370000000     0.936170000000     0.242420000000     0          
O6L      O      0.303200000000     0.000000000000     0.240080000000     0          
O6GC     O      0.196800000000     0.000000000000     0.259920000000     0          
Zr1      Zr     0.045343000000     0.782035000000     0.717965000000     0          
O2       O      0.044400000000     0.771340000000     0.771340000000     0          
O4       O      0.100990000000     0.779400000000     0.720600000000     0          
O5       O      0.044600000000     0.821400000000     0.678600000000     0          
O6       O      0.000000000000     0.759920000000     0.696800000000     0          
S1D      S      0.110920000000     0.889080000000     0.751090000000     0          
C1D      C      0.153110000000     0.942620000000     0.769940000000     0          
C2D      C      0.124010000000     0.920080000000     0.778970000000     0          
C3D      C      0.104500000000     0.920700000000     0.807700000000     0          
H1D      H      0.107600000000     0.936300000000     0.825400000000     0          
O1D      O      0.160710000000     0.965830000000     0.791130000000     0          
O3D      O      0.168630000000     0.936170000000     0.742420000000     0          
C1ED     C      0.057380000000     0.846890000000     0.769940000000     0          
C2ED     C      0.079920000000     0.875990000000     0.778970000000     0          
C3ED     C      0.079300000000     0.895500000000     0.807700000000     0          
H1ED     H      0.063700000000     0.892400000000     0.825400000000     0          
O1ED     O      0.034170000000     0.839290000000     0.791130000000     0          
O3ED     O      0.063830000000     0.831370000000     0.742420000000     0          
O2UB     O      0.044400000000     0.728660000000     0.728660000000     0          
O4UB     O      0.100990000000     0.720600000000     0.779400000000     0          
O5UB     O      0.044600000000     0.678600000000     0.821400000000     0          
O6UB     O      0.000000000000     0.740080000000     0.803200000000     0          
Zr1CA    Zr     0.217965000000     0.954657000000     0.717965000000     0          
Zr1GC    Zr     0.954657000000     0.782035000000     0.717965000000     0          
Zr2UB    Zr     0.000000000000     0.705533000000     0.705533000000     0          
O1L      O      0.965830000000     0.839290000000     0.791130000000     0          
O2L      O      0.955600000000     0.771340000000     0.771340000000     0          
O3UB     O      0.063830000000     0.757580000000     0.668630000000     0          
O3XF     O      0.063830000000     0.668630000000     0.757580000000     0          
O6L      O      0.000000000000     0.696800000000     0.759920000000     0          
O6GC     O      0.000000000000     0.803200000000     0.740080000000     0          
Zr1      Zr     0.217965000000     0.045343000000     0.717965000000     0          
O2       O      0.228660000000     0.044400000000     0.771340000000     0          
O4       O      0.220600000000     0.100990000000     0.720600000000     0          
O5       O      0.178600000000     0.044600000000     0.678600000000     0          
O6       O      0.240080000000     0.000000000000     0.696800000000     0          
S1D      S      0.110920000000     0.110920000000     0.751090000000     0          
C1D      C      0.057380000000     0.153110000000     0.769940000000     0          
C2D      C      0.079920000000     0.124010000000     0.778970000000     0          
C3D      C      0.079300000000     0.104500000000     0.807700000000     0          
H1D      H      0.063700000000     0.107600000000     0.825400000000     0          
O1D      O      0.034170000000     0.160710000000     0.791130000000     0          
O3D      O      0.063830000000     0.168630000000     0.742420000000     0          
C1ED     C      0.153110000000     0.057380000000     0.769940000000     0          
C2ED     C      0.124010000000     0.079920000000     0.778970000000     0          
C3ED     C      0.104500000000     0.079300000000     0.807700000000     0          
H1ED     H      0.107600000000     0.063700000000     0.825400000000     0          
O1ED     O      0.160710000000     0.034170000000     0.791130000000     0          
O3ED     O      0.168630000000     0.063830000000     0.742420000000     0          
O2UB     O      0.271340000000     0.044400000000     0.728660000000     0          
O4UB     O      0.279400000000     0.100990000000     0.779400000000     0          
O5UB     O      0.321400000000     0.044600000000     0.821400000000     0          
O6UB     O      0.259920000000     0.000000000000     0.803200000000     0          
Zr1CA    Zr     0.045343000000     0.217965000000     0.717965000000     0          
Zr2UB    Zr     0.294467000000     0.000000000000     0.705533000000     0          
O2L      O      0.228660000000     0.955600000000     0.771340000000     0          
O3UB     O      0.242420000000     0.063830000000     0.668630000000     0          
O3XF     O      0.331370000000     0.063830000000     0.757580000000     0          
O6L      O      0.303200000000     0.000000000000     0.759920000000     0          
O6GC     O      0.196800000000     0.000000000000     0.740080000000     0          
Zr1      Zr     0.954657000000     0.217965000000     0.717965000000     0          
O2       O      0.955600000000     0.228660000000     0.771340000000     0          
O4       O      0.899010000000     0.220600000000     0.720600000000     0          
O5       O      0.955400000000     0.178600000000     0.678600000000     0          
O6       O      0.000000000000     0.240080000000     0.696800000000     0          
S1D      S      0.889080000000     0.110920000000     0.751090000000     0          
C1D      C      0.846890000000     0.057380000000     0.769940000000     0          
C2D      C      0.875990000000     0.079920000000     0.778970000000     0          
C3D      C      0.895500000000     0.079300000000     0.807700000000     0          
H1D      H      0.892400000000     0.063700000000     0.825400000000     0          
O1D      O      0.839290000000     0.034170000000     0.791130000000     0          
O3D      O      0.831370000000     0.063830000000     0.742420000000     0          
C1ED     C      0.942620000000     0.153110000000     0.769940000000     0          
C2ED     C      0.920080000000     0.124010000000     0.778970000000     0          
C3ED     C      0.920700000000     0.104500000000     0.807700000000     0          
H1ED     H      0.936300000000     0.107600000000     0.825400000000     0          
O1ED     O      0.965830000000     0.160710000000     0.791130000000     0          
O3ED     O      0.936170000000     0.168630000000     0.742420000000     0          
O2UB     O      0.955600000000     0.271340000000     0.728660000000     0          
O4UB     O      0.899010000000     0.279400000000     0.779400000000     0          
O5UB     O      0.955400000000     0.321400000000     0.821400000000     0          
O6UB     O      0.000000000000     0.259920000000     0.803200000000     0          
Zr1CA    Zr     0.782035000000     0.045343000000     0.717965000000     0          
Zr2UB    Zr     0.000000000000     0.294467000000     0.705533000000     0          
O2L      O      0.044400000000     0.228660000000     0.771340000000     0          
O3UB     O      0.936170000000     0.242420000000     0.668630000000     0          
O3XF     O      0.936170000000     0.331370000000     0.757580000000     0          
O6L      O      0.000000000000     0.303200000000     0.759920000000     0          
O6GC     O      0.000000000000     0.196800000000     0.740080000000     0          
Zr1      Zr     0.782035000000     0.954657000000     0.717965000000     0          
O2       O      0.771340000000     0.955600000000     0.771340000000     0          
O4       O      0.779400000000     0.899010000000     0.720600000000     0          
O5       O      0.821400000000     0.955400000000     0.678600000000     0          
O6       O      0.759920000000     0.000000000000     0.696800000000     0          
S1D      S      0.889080000000     0.889080000000     0.751090000000     0          
C1D      C      0.942620000000     0.846890000000     0.769940000000     0          
C2D      C      0.920080000000     0.875990000000     0.778970000000     0          
C3D      C      0.920700000000     0.895500000000     0.807700000000     0          
H1D      H      0.936300000000     0.892400000000     0.825400000000     0          
O3D      O      0.936170000000     0.831370000000     0.742420000000     0          
C1ED     C      0.846890000000     0.942620000000     0.769940000000     0          
C2ED     C      0.875990000000     0.920080000000     0.778970000000     0          
C3ED     C      0.895500000000     0.920700000000     0.807700000000     0          
H1ED     H      0.892400000000     0.936300000000     0.825400000000     0          
O1ED     O      0.839290000000     0.965830000000     0.791130000000     0          
O3ED     O      0.831370000000     0.936170000000     0.742420000000     0          
O2UB     O      0.728660000000     0.955600000000     0.728660000000     0          
O4UB     O      0.720600000000     0.899010000000     0.779400000000     0          
O5UB     O      0.678600000000     0.955400000000     0.821400000000     0          
O6UB     O      0.740080000000     0.000000000000     0.803200000000     0          
Zr2UB    Zr     0.705533000000     0.000000000000     0.705533000000     0          
O2L      O      0.771340000000     0.044400000000     0.771340000000     0          
O3UB     O      0.757580000000     0.936170000000     0.668630000000     0          
O3XF     O      0.668630000000     0.936170000000     0.757580000000     0          
O6L      O      0.696800000000     0.000000000000     0.759920000000     0          
O6GC     O      0.803200000000     0.000000000000     0.740080000000     0          
O4       O      0.279400000000     0.100990000000     0.220600000000     0          
O5       O      0.321400000000     0.044600000000     0.178600000000     0          
O2UB     O      0.271340000000     0.044400000000     0.271340000000     0          
O4UB     O      0.220600000000     0.100990000000     0.279400000000     0          
O5UB     O      0.178600000000     0.044600000000     0.321400000000     0          
O3UB     O      0.331370000000     0.063830000000     0.242420000000     0          
O3XF     O      0.242420000000     0.063830000000     0.331370000000     0          
O4       O      0.279400000000     0.899010000000     0.779400000000     0          
O5       O      0.321400000000     0.955400000000     0.821400000000     0          
O2UB     O      0.271340000000     0.955600000000     0.728660000000     0          
O4UB     O      0.220600000000     0.899010000000     0.720600000000     0          
O5UB     O      0.178600000000     0.955400000000     0.678600000000     0          
O3UB     O      0.331370000000     0.936170000000     0.757580000000     0          
O3XF     O      0.242420000000     0.936170000000     0.668630000000     0          
O4       O      0.100990000000     0.279400000000     0.779400000000     0          
O5       O      0.044600000000     0.321400000000     0.821400000000     0          
O2UB     O      0.044400000000     0.271340000000     0.728660000000     0          
O4UB     O      0.100990000000     0.220600000000     0.720600000000     0          
O5UB     O      0.044600000000     0.178600000000     0.678600000000     0          
O3UB     O      0.063830000000     0.331370000000     0.757580000000     0          
O3XF     O      0.063830000000     0.242420000000     0.668630000000     0          
O4       O      0.720600000000     0.100990000000     0.779400000000     0          
O5       O      0.678600000000     0.044600000000     0.821400000000     0          
O2UB     O      0.728660000000     0.044400000000     0.728660000000     0          
O4UB     O      0.779400000000     0.100990000000     0.720600000000     0          
O5UB     O      0.821400000000     0.044600000000     0.678600000000     0          
O3UB     O      0.668630000000     0.063830000000     0.757580000000     0          
O3XF     O      0.757580000000     0.063830000000     0.668630000000     0          
O4       O      0.899010000000     0.720600000000     0.779400000000     0          
O5       O      0.955400000000     0.678600000000     0.821400000000     0          
O2UB     O      0.955600000000     0.728660000000     0.728660000000     0          
O4UB     O      0.899010000000     0.779400000000     0.720600000000     0          
O5UB     O      0.955400000000     0.821400000000     0.678600000000     0          
O3UB     O      0.936170000000     0.668630000000     0.757580000000     0          
O3XF     O      0.936170000000     0.757580000000     0.668630000000     0          
O4       O      0.720600000000     0.899010000000     0.220600000000     0          
O5       O      0.678600000000     0.955400000000     0.178600000000     0          
O2UB     O      0.728660000000     0.955600000000     0.271340000000     0          
O4UB     O      0.779400000000     0.899010000000     0.279400000000     0          
O5UB     O      0.821400000000     0.955400000000     0.321400000000     0          
O3UB     O      0.668630000000     0.936170000000     0.242420000000     0          
O3XF     O      0.757580000000     0.936170000000     0.331370000000     0          
O4       O      0.100990000000     0.720600000000     0.220600000000     0          
O5       O      0.044600000000     0.678600000000     0.178600000000     0          
O2UB     O      0.044400000000     0.728660000000     0.271340000000     0          
O4UB     O      0.100990000000     0.779400000000     0.279400000000     0          
O5UB     O      0.044600000000     0.821400000000     0.321400000000     0          
O3UB     O      0.063830000000     0.668630000000     0.242420000000     0          
O3XF     O      0.063830000000     0.757580000000     0.331370000000     0          
O4       O      0.899010000000     0.279400000000     0.220600000000     0          
O5       O      0.955400000000     0.321400000000     0.178600000000     0          
O2UB     O      0.955600000000     0.271340000000     0.271340000000     0          
O4UB     O      0.899010000000     0.220600000000     0.279400000000     0          
O5UB     O      0.955400000000     0.178600000000     0.321400000000     0          
O3UB     O      0.936170000000     0.331370000000     0.242420000000     0          
O3XF     O      0.936170000000     0.242420000000     0.331370000000     0          
Zr1      Zr     0.217965000000     0.782035000000     0.545343000000     0          
Zr2      Zr     0.205533000000     0.705533000000     0.500000000000     0          
S1       S      0.248910000000     0.610920000000     0.610920000000     0          
C1       C      0.230060000000     0.653110000000     0.557380000000     0          
C2       C      0.221030000000     0.624010000000     0.579920000000     0          
C3       C      0.192300000000     0.604500000000     0.579300000000     0          
H1       H      0.174600000000     0.607600000000     0.563700000000     0          
O1       O      0.208870000000     0.660710000000     0.534170000000     0          
O2       O      0.228660000000     0.728660000000     0.544400000000     0          
O3       O      0.257580000000     0.668630000000     0.563830000000     0          
O4       O      0.220600000000     0.779400000000     0.600990000000     0          
O5       O      0.178600000000     0.821400000000     0.544600000000     0          
O6       O      0.240080000000     0.803200000000     0.500000000000     0          
C1JD     C      0.230060000000     0.557380000000     0.653110000000     0          
C2JD     C      0.221030000000     0.579920000000     0.624010000000     0          
C3JD     C      0.192300000000     0.579300000000     0.604500000000     0          
H1JD     H      0.174600000000     0.563700000000     0.607600000000     0          
O1JD     O      0.208870000000     0.534170000000     0.660710000000     0          
O3JD     O      0.257580000000     0.563830000000     0.668630000000     0          
S1D      S      0.110920000000     0.748910000000     0.610920000000     0          
C1D      C      0.057380000000     0.730060000000     0.653110000000     0          
C2D      C      0.079920000000     0.721030000000     0.624010000000     0          
C3D      C      0.079300000000     0.692300000000     0.604500000000     0          
H1D      H      0.063700000000     0.674600000000     0.607600000000     0          
O1D      O      0.034170000000     0.708870000000     0.660710000000     0          
C1ED     C      0.153110000000     0.730060000000     0.557380000000     0          
C2ED     C      0.124010000000     0.721030000000     0.579920000000     0          
C3ED     C      0.104500000000     0.692300000000     0.579300000000     0          
H1ED     H      0.107600000000     0.674600000000     0.563700000000     0          
O1ED     O      0.160710000000     0.708870000000     0.534170000000     0          
O3ED     O      0.168630000000     0.757580000000     0.563830000000     0          
Zr1UB    Zr     0.282035000000     0.717965000000     0.545343000000     0          
O2UB     O      0.271340000000     0.771340000000     0.544400000000     0          
O4UB     O      0.279400000000     0.720600000000     0.600990000000     0          
O5UB     O      0.321400000000     0.678600000000     0.544600000000     0          
O6UB     O      0.259920000000     0.696800000000     0.500000000000     0          
Zr1H     Zr     0.282035000000     0.545343000000     0.717965000000     0          
Zr1L     Zr     0.282035000000     0.717965000000     0.454657000000     0          
Zr1GC    Zr     0.217965000000     0.782035000000     0.454657000000     0          
Zr2H     Zr     0.205533000000     0.500000000000     0.705530000000     0          
Zr2UB    Zr     0.294467000000     0.794467000000     0.500000000000     0          
O1L      O      0.160710000000     0.708870000000     0.465830000000     0          
O1SC     O      0.208870000000     0.660710000000     0.465830000000     0          
O2L      O      0.228660000000     0.728660000000     0.455600000000     0          
O3UB     O      0.242420000000     0.831370000000     0.563830000000     0          
O3XF     O      0.331370000000     0.742420000000     0.563830000000     0          
O6L      O      0.303200000000     0.740080000000     0.500000000000     0          
O6GC     O      0.196800000000     0.759920000000     0.500000000000     0          
Zr1      Zr     0.717965000000     0.717965000000     0.545343000000     0          
Zr2      Zr     0.794467000000     0.705533000000     0.500000000000     0          
S1       S      0.889080000000     0.748910000000     0.610920000000     0          
C1       C      0.846890000000     0.730060000000     0.557380000000     0          
C2       C      0.875990000000     0.721030000000     0.579920000000     0          
C3       C      0.895500000000     0.692300000000     0.579300000000     0          
H1       H      0.892400000000     0.674600000000     0.563700000000     0          
O1       O      0.839290000000     0.708870000000     0.534170000000     0          
O2       O      0.771340000000     0.728660000000     0.544400000000     0          
O3       O      0.831370000000     0.757580000000     0.563830000000     0          
O4       O      0.720600000000     0.720600000000     0.600990000000     0          
O5       O      0.678600000000     0.678600000000     0.544600000000     0          
O6       O      0.696800000000     0.740080000000     0.500000000000     0          
C1JD     C      0.942620000000     0.730060000000     0.653110000000     0          
C2JD     C      0.920080000000     0.721030000000     0.624010000000     0          
C3JD     C      0.920700000000     0.692300000000     0.604500000000     0          
H1JD     H      0.936300000000     0.674600000000     0.607600000000     0          
O1JD     O      0.965830000000     0.708870000000     0.660710000000     0          
S1D      S      0.751090000000     0.610920000000     0.610920000000     0          
C1D      C      0.769940000000     0.557380000000     0.653110000000     0          
C2D      C      0.778970000000     0.579920000000     0.624010000000     0          
C3D      C      0.807700000000     0.579300000000     0.604500000000     0          
H1D      H      0.825400000000     0.563700000000     0.607600000000     0          
O1D      O      0.791130000000     0.534170000000     0.660710000000     0          
O3D      O      0.742420000000     0.563830000000     0.668630000000     0          
C1ED     C      0.769940000000     0.653110000000     0.557380000000     0          
C2ED     C      0.778970000000     0.624010000000     0.579920000000     0          
C3ED     C      0.807700000000     0.604500000000     0.579300000000     0          
H1ED     H      0.825400000000     0.607600000000     0.563700000000     0          
O1ED     O      0.791130000000     0.660710000000     0.534170000000     0          
O3ED     O      0.742420000000     0.668630000000     0.563830000000     0          
Zr1UB    Zr     0.782035000000     0.782035000000     0.545343000000     0          
O2UB     O      0.728660000000     0.771340000000     0.544400000000     0          
O4UB     O      0.779400000000     0.779400000000     0.600990000000     0          
O5UB     O      0.821400000000     0.821400000000     0.544600000000     0          
O6UB     O      0.803200000000     0.759920000000     0.500000000000     0          
Zr1L     Zr     0.782035000000     0.782035000000     0.454657000000     0          
Zr1CA    Zr     0.717965000000     0.545343000000     0.717965000000     0          
Zr1GC    Zr     0.717965000000     0.717965000000     0.454657000000     0          
Zr2D     Zr     0.794467000000     0.500000000000     0.705530000000     0          
Zr2UB    Zr     0.705533000000     0.794467000000     0.500000000000     0          
O1L      O      0.791130000000     0.660710000000     0.465830000000     0          
O1SC     O      0.839290000000     0.708870000000     0.465830000000     0          
O2L      O      0.771340000000     0.728660000000     0.455600000000     0          
O3UB     O      0.668630000000     0.742420000000     0.563830000000     0          
O3XF     O      0.757580000000     0.831370000000     0.563830000000     0          
O6L      O      0.759920000000     0.803200000000     0.500000000000     0          
O6GC     O      0.740080000000     0.696800000000     0.500000000000     0          
Zr1      Zr     0.782035000000     0.217965000000     0.545343000000     0          
Zr2      Zr     0.794467000000     0.294467000000     0.500000000000     0          
S1       S      0.751090000000     0.389080000000     0.610920000000     0          
C1       C      0.769940000000     0.346890000000     0.557380000000     0          
C2       C      0.778970000000     0.375990000000     0.579920000000     0          
C3       C      0.807700000000     0.395500000000     0.579300000000     0          
H1       H      0.825400000000     0.392400000000     0.563700000000     0          
O1       O      0.791130000000     0.339290000000     0.534170000000     0          
O2       O      0.771340000000     0.271340000000     0.544400000000     0          
O3       O      0.742420000000     0.331370000000     0.563830000000     0          
O4       O      0.779400000000     0.220600000000     0.600990000000     0          
O5       O      0.821400000000     0.178600000000     0.544600000000     0          
O6       O      0.759920000000     0.196800000000     0.500000000000     0          
C1JD     C      0.769940000000     0.442620000000     0.653110000000     0          
C2JD     C      0.778970000000     0.420080000000     0.624010000000     0          
C3JD     C      0.807700000000     0.420700000000     0.604500000000     0          
H1JD     H      0.825400000000     0.436300000000     0.607600000000     0          
O1JD     O      0.791130000000     0.465830000000     0.660710000000     0          
O3JD     O      0.742420000000     0.436170000000     0.668630000000     0          
S1D      S      0.889080000000     0.251090000000     0.610920000000     0          
C1D      C      0.942620000000     0.269940000000     0.653110000000     0          
C2D      C      0.920080000000     0.278970000000     0.624010000000     0          
C3D      C      0.920700000000     0.307700000000     0.604500000000     0          
H1D      H      0.936300000000     0.325400000000     0.607600000000     0          
O1D      O      0.965830000000     0.291130000000     0.660710000000     0          
C1ED     C      0.846890000000     0.269940000000     0.557380000000     0          
C2ED     C      0.875990000000     0.278970000000     0.579920000000     0          
C3ED     C      0.895500000000     0.307700000000     0.579300000000     0          
H1ED     H      0.892400000000     0.325400000000     0.563700000000     0          
O1ED     O      0.839290000000     0.291130000000     0.534170000000     0          
O3ED     O      0.831370000000     0.242420000000     0.563830000000     0          
Zr1UB    Zr     0.717965000000     0.282035000000     0.545343000000     0          
O2UB     O      0.728660000000     0.228660000000     0.544400000000     0          
O4UB     O      0.720600000000     0.279400000000     0.600990000000     0          
O5UB     O      0.678600000000     0.321400000000     0.544600000000     0          
O6UB     O      0.740080000000     0.303200000000     0.500000000000     0          
Zr1H     Zr     0.717965000000     0.454657000000     0.717965000000     0          
Zr1L     Zr     0.717965000000     0.282035000000     0.454657000000     0          
Zr1GC    Zr     0.782035000000     0.217965000000     0.454657000000     0          
Zr2UB    Zr     0.705533000000     0.205533000000     0.500000000000     0          
O1L      O      0.839290000000     0.291130000000     0.465830000000     0          
O1SC     O      0.791130000000     0.339290000000     0.465830000000     0          
O2L      O      0.771340000000     0.271340000000     0.455600000000     0          
O3UB     O      0.757580000000     0.168630000000     0.563830000000     0          
O3XF     O      0.668630000000     0.257580000000     0.563830000000     0          
O6L      O      0.696800000000     0.259920000000     0.500000000000     0          
O6GC     O      0.803200000000     0.240080000000     0.500000000000     0          
Zr1      Zr     0.282035000000     0.282035000000     0.545343000000     0          
Zr2      Zr     0.205533000000     0.294467000000     0.500000000000     0          
S1       S      0.110920000000     0.251090000000     0.610920000000     0          
C1       C      0.153110000000     0.269940000000     0.557380000000     0          
C2       C      0.124010000000     0.278970000000     0.579920000000     0          
C3       C      0.104500000000     0.307700000000     0.579300000000     0          
H1       H      0.107600000000     0.325400000000     0.563700000000     0          
O1       O      0.160710000000     0.291130000000     0.534170000000     0          
O2       O      0.228660000000     0.271340000000     0.544400000000     0          
O3       O      0.168630000000     0.242420000000     0.563830000000     0          
O4       O      0.279400000000     0.279400000000     0.600990000000     0          
O5       O      0.321400000000     0.321400000000     0.544600000000     0          
O6       O      0.303200000000     0.259920000000     0.500000000000     0          
C1JD     C      0.057380000000     0.269940000000     0.653110000000     0          
C2JD     C      0.079920000000     0.278970000000     0.624010000000     0          
C3JD     C      0.079300000000     0.307700000000     0.604500000000     0          
H1JD     H      0.063700000000     0.325400000000     0.607600000000     0          
O1JD     O      0.034170000000     0.291130000000     0.660710000000     0          
S1D      S      0.248910000000     0.389080000000     0.610920000000     0          
C1D      C      0.230060000000     0.442620000000     0.653110000000     0          
C2D      C      0.221030000000     0.420080000000     0.624010000000     0          
C3D      C      0.192300000000     0.420700000000     0.604500000000     0          
H1D      H      0.174600000000     0.436300000000     0.607600000000     0          
O1D      O      0.208870000000     0.465830000000     0.660710000000     0          
O3D      O      0.257580000000     0.436170000000     0.668630000000     0          
C1ED     C      0.230060000000     0.346890000000     0.557380000000     0          
C2ED     C      0.221030000000     0.375990000000     0.579920000000     0          
C3ED     C      0.192300000000     0.395500000000     0.579300000000     0          
H1ED     H      0.174600000000     0.392400000000     0.563700000000     0          
O1ED     O      0.208870000000     0.339290000000     0.534170000000     0          
O3ED     O      0.257580000000     0.331370000000     0.563830000000     0          
Zr1UB    Zr     0.217965000000     0.217965000000     0.545343000000     0          
O2UB     O      0.271340000000     0.228660000000     0.544400000000     0          
O4UB     O      0.220600000000     0.220600000000     0.600990000000     0          
O5UB     O      0.178600000000     0.178600000000     0.544600000000     0          
O6UB     O      0.196800000000     0.240080000000     0.500000000000     0          
Zr1L     Zr     0.217965000000     0.217965000000     0.454657000000     0          
Zr1CA    Zr     0.282035000000     0.454657000000     0.717965000000     0          
Zr1GC    Zr     0.282035000000     0.282035000000     0.454657000000     0          
Zr2UB    Zr     0.294467000000     0.205533000000     0.500000000000     0          
O1L      O      0.208870000000     0.339290000000     0.465830000000     0          
O1SC     O      0.160710000000     0.291130000000     0.465830000000     0          
O2L      O      0.228660000000     0.271340000000     0.455600000000     0          
O3UB     O      0.331370000000     0.257580000000     0.563830000000     0          
O3XF     O      0.242420000000     0.168630000000     0.563830000000     0          
O6L      O      0.240080000000     0.196800000000     0.500000000000     0          
O6GC     O      0.259920000000     0.303200000000     0.500000000000     0          
S1       S      0.248910000000     0.389080000000     0.389080000000     0          
C1       C      0.230060000000     0.346890000000     0.442620000000     0          
C2       C      0.221030000000     0.375990000000     0.420080000000     0          
C3       C      0.192300000000     0.395500000000     0.420700000000     0          
H1       H      0.174600000000     0.392400000000     0.436300000000     0          
O3       O      0.257580000000     0.331370000000     0.436170000000     0          
O4       O      0.220600000000     0.220600000000     0.399010000000     0          
O5       O      0.178600000000     0.178600000000     0.455400000000     0          
C1JD     C      0.230060000000     0.442620000000     0.346890000000     0          
C2JD     C      0.221030000000     0.420080000000     0.375990000000     0          
C3JD     C      0.192300000000     0.420700000000     0.395500000000     0          
H1JD     H      0.174600000000     0.436300000000     0.392400000000     0          
O1JD     O      0.208870000000     0.465830000000     0.339290000000     0          
O3JD     O      0.257580000000     0.436170000000     0.331370000000     0          
S1D      S      0.110920000000     0.251090000000     0.389080000000     0          
C1D      C      0.057380000000     0.269940000000     0.346890000000     0          
C2D      C      0.079920000000     0.278970000000     0.375990000000     0          
C3D      C      0.079300000000     0.307700000000     0.395500000000     0          
H1D      H      0.063700000000     0.325400000000     0.392400000000     0          
O1D      O      0.034170000000     0.291130000000     0.339290000000     0          
C1ED     C      0.153110000000     0.269940000000     0.442620000000     0          
C2ED     C      0.124010000000     0.278970000000     0.420080000000     0          
C3ED     C      0.104500000000     0.307700000000     0.420700000000     0          
H1ED     H      0.107600000000     0.325400000000     0.436300000000     0          
O3ED     O      0.168630000000     0.242420000000     0.436170000000     0          
O2UB     O      0.271340000000     0.228660000000     0.455600000000     0          
O4UB     O      0.279400000000     0.279400000000     0.399010000000     0          
O5UB     O      0.321400000000     0.321400000000     0.455400000000     0          
Zr1H     Zr     0.282035000000     0.454657000000     0.282035000000     0          
Zr2H     Zr     0.205533000000     0.500000000000     0.294470000000     0          
O3UB     O      0.242420000000     0.168630000000     0.436170000000     0          
O3XF     O      0.331370000000     0.257580000000     0.436170000000     0          
S1       S      0.110920000000     0.748910000000     0.389080000000     0          
C1       C      0.153110000000     0.730060000000     0.442620000000     0          
C2       C      0.124010000000     0.721030000000     0.420080000000     0          
C3       C      0.104500000000     0.692300000000     0.420700000000     0          
H1       H      0.107600000000     0.674600000000     0.436300000000     0          
O3       O      0.168630000000     0.757580000000     0.436170000000     0          
O4       O      0.279400000000     0.720600000000     0.399010000000     0          
O5       O      0.321400000000     0.678600000000     0.455400000000     0          
C1JD     C      0.057380000000     0.730060000000     0.346890000000     0          
C2JD     C      0.079920000000     0.721030000000     0.375990000000     0          
C3JD     C      0.079300000000     0.692300000000     0.395500000000     0          
H1JD     H      0.063700000000     0.674600000000     0.392400000000     0          
O1JD     O      0.034170000000     0.708870000000     0.339290000000     0          
S1D      S      0.248910000000     0.610920000000     0.389080000000     0          
C1D      C      0.230060000000     0.557380000000     0.346890000000     0          
C2D      C      0.221030000000     0.579920000000     0.375990000000     0          
C3D      C      0.192300000000     0.579300000000     0.395500000000     0          
H1D      H      0.174600000000     0.563700000000     0.392400000000     0          
O1D      O      0.208870000000     0.534170000000     0.339290000000     0          
O3D      O      0.257580000000     0.563830000000     0.331370000000     0          
C1ED     C      0.230060000000     0.653110000000     0.442620000000     0          
C2ED     C      0.221030000000     0.624010000000     0.420080000000     0          
C3ED     C      0.192300000000     0.604500000000     0.420700000000     0          
H1ED     H      0.174600000000     0.607600000000     0.436300000000     0          
O3ED     O      0.257580000000     0.668630000000     0.436170000000     0          
O2UB     O      0.271340000000     0.771340000000     0.455600000000     0          
O4UB     O      0.220600000000     0.779400000000     0.399010000000     0          
O5UB     O      0.178600000000     0.821400000000     0.455400000000     0          
Zr1CA    Zr     0.282035000000     0.545343000000     0.282035000000     0          
O3UB     O      0.331370000000     0.742420000000     0.436170000000     0          
O3XF     O      0.242420000000     0.831370000000     0.436170000000     0          
S1       S      0.751090000000     0.610920000000     0.389080000000     0          
C1       C      0.769940000000     0.653110000000     0.442620000000     0          
C2       C      0.778970000000     0.624010000000     0.420080000000     0          
C3       C      0.807700000000     0.604500000000     0.420700000000     0          
H1       H      0.825400000000     0.607600000000     0.436300000000     0          
O3       O      0.742420000000     0.668630000000     0.436170000000     0          
O4       O      0.779400000000     0.779400000000     0.399010000000     0          
O5       O      0.821400000000     0.821400000000     0.455400000000     0          
C1JD     C      0.769940000000     0.557380000000     0.346890000000     0          
C2JD     C      0.778970000000     0.579920000000     0.375990000000     0          
C3JD     C      0.807700000000     0.579300000000     0.395500000000     0          
H1JD     H      0.825400000000     0.563700000000     0.392400000000     0          
O1JD     O      0.791130000000     0.534170000000     0.339290000000     0          
O3JD     O      0.742420000000     0.563830000000     0.331370000000     0          
S1D      S      0.889080000000     0.748910000000     0.389080000000     0          
C1D      C      0.942620000000     0.730060000000     0.346890000000     0          
C2D      C      0.920080000000     0.721030000000     0.375990000000     0          
C3D      C      0.920700000000     0.692300000000     0.395500000000     0          
H1D      H      0.936300000000     0.674600000000     0.392400000000     0          
O1D      O      0.965830000000     0.708870000000     0.339290000000     0          
C1ED     C      0.846890000000     0.730060000000     0.442620000000     0          
C2ED     C      0.875990000000     0.721030000000     0.420080000000     0          
C3ED     C      0.895500000000     0.692300000000     0.420700000000     0          
H1ED     H      0.892400000000     0.674600000000     0.436300000000     0          
O3ED     O      0.831370000000     0.757580000000     0.436170000000     0          
O2UB     O      0.728660000000     0.771340000000     0.455600000000     0          
O4UB     O      0.720600000000     0.720600000000     0.399010000000     0          
O5UB     O      0.678600000000     0.678600000000     0.455400000000     0          
Zr1H     Zr     0.717965000000     0.545343000000     0.282035000000     0          
Zr2H     Zr     0.794467000000     0.500000000000     0.294470000000     0          
O3UB     O      0.757580000000     0.831370000000     0.436170000000     0          
O3XF     O      0.668630000000     0.742420000000     0.436170000000     0          
S1       S      0.889080000000     0.251090000000     0.389080000000     0          
C1       C      0.846890000000     0.269940000000     0.442620000000     0          
C2       C      0.875990000000     0.278970000000     0.420080000000     0          
C3       C      0.895500000000     0.307700000000     0.420700000000     0          
H1       H      0.892400000000     0.325400000000     0.436300000000     0          
O3       O      0.831370000000     0.242420000000     0.436170000000     0          
O4       O      0.720600000000     0.279400000000     0.399010000000     0          
O5       O      0.678600000000     0.321400000000     0.455400000000     0          
C1JD     C      0.942620000000     0.269940000000     0.346890000000     0          
C2JD     C      0.920080000000     0.278970000000     0.375990000000     0          
C3JD     C      0.920700000000     0.307700000000     0.395500000000     0          
H1JD     H      0.936300000000     0.325400000000     0.392400000000     0          
O1JD     O      0.965830000000     0.291130000000     0.339290000000     0          
S1D      S      0.751090000000     0.389080000000     0.389080000000     0          
C1D      C      0.769940000000     0.442620000000     0.346890000000     0          
C2D      C      0.778970000000     0.420080000000     0.375990000000     0          
C3D      C      0.807700000000     0.420700000000     0.395500000000     0          
H1D      H      0.825400000000     0.436300000000     0.392400000000     0          
O1D      O      0.791130000000     0.465830000000     0.339290000000     0          
O3D      O      0.742420000000     0.436170000000     0.331370000000     0          
C1ED     C      0.769940000000     0.346890000000     0.442620000000     0          
C2ED     C      0.778970000000     0.375990000000     0.420080000000     0          
C3ED     C      0.807700000000     0.395500000000     0.420700000000     0          
H1ED     H      0.825400000000     0.392400000000     0.436300000000     0          
O3ED     O      0.742420000000     0.331370000000     0.436170000000     0          
O2UB     O      0.728660000000     0.228660000000     0.455600000000     0          
O4UB     O      0.779400000000     0.220600000000     0.399010000000     0          
O5UB     O      0.821400000000     0.178600000000     0.455400000000     0          
Zr1CA    Zr     0.717965000000     0.454657000000     0.282035000000     0          
O3UB     O      0.668630000000     0.257580000000     0.436170000000     0          
O3XF     O      0.757580000000     0.168630000000     0.436170000000     0          
S1D      S      0.110920000000     0.610920000000     0.748910000000     0          
C1D      C      0.153110000000     0.557380000000     0.730060000000     0          
C2D      C      0.124010000000     0.579920000000     0.721030000000     0          
C3D      C      0.104500000000     0.579300000000     0.692300000000     0          
H1D      H      0.107600000000     0.563700000000     0.674600000000     0          
O1D      O      0.160710000000     0.534170000000     0.708870000000     0          
O3D      O      0.168630000000     0.563830000000     0.757580000000     0          
C1ED     C      0.057380000000     0.653110000000     0.730060000000     0          
C2ED     C      0.079920000000     0.624010000000     0.721030000000     0          
C3ED     C      0.079300000000     0.604500000000     0.692300000000     0          
H1ED     H      0.063700000000     0.607600000000     0.674600000000     0          
O1ED     O      0.034170000000     0.660710000000     0.708870000000     0          
Zr1CA    Zr     0.217965000000     0.545343000000     0.782035000000     0          
O1L      O      0.965830000000     0.660710000000     0.708870000000     0          
Zr1      Zr     0.782035000000     0.545343000000     0.782035000000     0          
O2       O      0.771340000000     0.544400000000     0.728660000000     0          
O4       O      0.779400000000     0.600990000000     0.779400000000     0          
O5       O      0.821400000000     0.544600000000     0.821400000000     0          
O6       O      0.759920000000     0.500000000000     0.803200000000     0          
S1D      S      0.889080000000     0.610920000000     0.748910000000     0          
C1D      C      0.942620000000     0.653110000000     0.730060000000     0          
C2D      C      0.920080000000     0.624010000000     0.721030000000     0          
C3D      C      0.920700000000     0.604500000000     0.692300000000     0          
H1D      H      0.936300000000     0.607600000000     0.674600000000     0          
C1ED     C      0.846890000000     0.557380000000     0.730060000000     0          
C2ED     C      0.875990000000     0.579920000000     0.721030000000     0          
C3ED     C      0.895500000000     0.579300000000     0.692300000000     0          
H1ED     H      0.892400000000     0.563700000000     0.674600000000     0          
O1ED     O      0.839290000000     0.534170000000     0.708870000000     0          
O3ED     O      0.831370000000     0.563830000000     0.757580000000     0          
O2UB     O      0.728660000000     0.544400000000     0.771340000000     0          
O4UB     O      0.720600000000     0.600990000000     0.720600000000     0          
O5UB     O      0.678600000000     0.544600000000     0.678600000000     0          
O6UB     O      0.740080000000     0.500000000000     0.696800000000     0          
Zr1GC    Zr     0.782035000000     0.454657000000     0.782035000000     0          
Zr2UB    Zr     0.705533000000     0.500000000000     0.794467000000     0          
O1L      O      0.839290000000     0.465830000000     0.708870000000     0          
O2L      O      0.771340000000     0.455600000000     0.728660000000     0          
O3UB     O      0.757580000000     0.563830000000     0.831370000000     0          
O3XF     O      0.668630000000     0.563830000000     0.742420000000     0          
O6L      O      0.696800000000     0.500000000000     0.740080000000     0          
O6GC     O      0.803200000000     0.500000000000     0.759920000000     0          
S1D      S      0.889080000000     0.389080000000     0.748910000000     0          
C1D      C      0.846890000000     0.442620000000     0.730060000000     0          
C2D      C      0.875990000000     0.420080000000     0.721030000000     0          
C3D      C      0.895500000000     0.420700000000     0.692300000000     0          
H1D      H      0.892400000000     0.436300000000     0.674600000000     0          
O3D      O      0.831370000000     0.436170000000     0.757580000000     0          
C1ED     C      0.942620000000     0.346890000000     0.730060000000     0          
C2ED     C      0.920080000000     0.375990000000     0.721030000000     0          
C3ED     C      0.920700000000     0.395500000000     0.692300000000     0          
H1ED     H      0.936300000000     0.392400000000     0.674600000000     0          
O1ED     O      0.965830000000     0.339290000000     0.708870000000     0          
O1L      O      0.034170000000     0.339290000000     0.708870000000     0          
Zr1      Zr     0.217965000000     0.454657000000     0.782035000000     0          
O2       O      0.228660000000     0.455600000000     0.728660000000     0          
O4       O      0.220600000000     0.399010000000     0.779400000000     0          
O5       O      0.178600000000     0.455400000000     0.821400000000     0          
O6       O      0.240080000000     0.500000000000     0.803200000000     0          
S1D      S      0.110920000000     0.389080000000     0.748910000000     0          
C1D      C      0.057380000000     0.346890000000     0.730060000000     0          
C2D      C      0.079920000000     0.375990000000     0.721030000000     0          
C3D      C      0.079300000000     0.395500000000     0.692300000000     0          
H1D      H      0.063700000000     0.392400000000     0.674600000000     0          
C1ED     C      0.153110000000     0.442620000000     0.730060000000     0          
C2ED     C      0.124010000000     0.420080000000     0.721030000000     0          
C3ED     C      0.104500000000     0.420700000000     0.692300000000     0          
H1ED     H      0.107600000000     0.436300000000     0.674600000000     0          
O1ED     O      0.160710000000     0.465830000000     0.708870000000     0          
O3ED     O      0.168630000000     0.436170000000     0.757580000000     0          
O2UB     O      0.271340000000     0.455600000000     0.771340000000     0          
O4UB     O      0.279400000000     0.399010000000     0.720600000000     0          
O5UB     O      0.321400000000     0.455400000000     0.678600000000     0          
O6UB     O      0.259920000000     0.500000000000     0.696800000000     0          
Zr2UB    Zr     0.294467000000     0.500000000000     0.794467000000     0          
O2L      O      0.228660000000     0.544400000000     0.728660000000     0          
O3UB     O      0.242420000000     0.436170000000     0.831370000000     0          
O3XF     O      0.331370000000     0.436170000000     0.742420000000     0          
O6L      O      0.303200000000     0.500000000000     0.740080000000     0          
O6GC     O      0.196800000000     0.500000000000     0.759920000000     0          
S1D      S      0.110920000000     0.389080000000     0.251090000000     0          
C1D      C      0.153110000000     0.442620000000     0.269940000000     0          
C2D      C      0.124010000000     0.420080000000     0.278970000000     0          
C3D      C      0.104500000000     0.420700000000     0.307700000000     0          
H1D      H      0.107600000000     0.436300000000     0.325400000000     0          
O1D      O      0.160710000000     0.465830000000     0.291130000000     0          
O3D      O      0.168630000000     0.436170000000     0.242420000000     0          
C1ED     C      0.057380000000     0.346890000000     0.269940000000     0          
C2ED     C      0.079920000000     0.375990000000     0.278970000000     0          
C3ED     C      0.079300000000     0.395500000000     0.307700000000     0          
H1ED     H      0.063700000000     0.392400000000     0.325400000000     0          
O1ED     O      0.034170000000     0.339290000000     0.291130000000     0          
Zr1CA    Zr     0.217965000000     0.454657000000     0.217965000000     0          
O1L      O      0.965830000000     0.339290000000     0.291130000000     0          
Zr1      Zr     0.217965000000     0.545343000000     0.217965000000     0          
O2       O      0.228660000000     0.544400000000     0.271340000000     0          
O4       O      0.220600000000     0.600990000000     0.220600000000     0          
O5       O      0.178600000000     0.544600000000     0.178600000000     0          
O6       O      0.240080000000     0.500000000000     0.196800000000     0          
S1D      S      0.110920000000     0.610920000000     0.251090000000     0          
C1D      C      0.057380000000     0.653110000000     0.269940000000     0          
C2D      C      0.079920000000     0.624010000000     0.278970000000     0          
C3D      C      0.079300000000     0.604500000000     0.307700000000     0          
H1D      H      0.063700000000     0.607600000000     0.325400000000     0          
O1D      O      0.034170000000     0.660710000000     0.291130000000     0          
C1ED     C      0.153110000000     0.557380000000     0.269940000000     0          
C2ED     C      0.124010000000     0.579920000000     0.278970000000     0          
C3ED     C      0.104500000000     0.579300000000     0.307700000000     0          
H1ED     H      0.107600000000     0.563700000000     0.325400000000     0          
O1ED     O      0.160710000000     0.534170000000     0.291130000000     0          
O3ED     O      0.168630000000     0.563830000000     0.242420000000     0          
O2UB     O      0.271340000000     0.544400000000     0.228660000000     0          
O4UB     O      0.279400000000     0.600990000000     0.279400000000     0          
O5UB     O      0.321400000000     0.544600000000     0.321400000000     0          
O6UB     O      0.259920000000     0.500000000000     0.303200000000     0          
Zr2UB    Zr     0.294467000000     0.500000000000     0.205533000000     0          
O2L      O      0.228660000000     0.455600000000     0.271340000000     0          
O3UB     O      0.242420000000     0.563830000000     0.168630000000     0          
O3XF     O      0.331370000000     0.563830000000     0.257580000000     0          
O6L      O      0.303200000000     0.500000000000     0.259920000000     0          
O6GC     O      0.196800000000     0.500000000000     0.240080000000     0          
S1D      S      0.889080000000     0.610920000000     0.251090000000     0          
C1D      C      0.846890000000     0.557380000000     0.269940000000     0          
C2D      C      0.875990000000     0.579920000000     0.278970000000     0          
C3D      C      0.895500000000     0.579300000000     0.307700000000     0          
H1D      H      0.892400000000     0.563700000000     0.325400000000     0          
O1D      O      0.839290000000     0.534170000000     0.291130000000     0          
O3D      O      0.831370000000     0.563830000000     0.242420000000     0          
C1ED     C      0.942620000000     0.653110000000     0.269940000000     0          
C2ED     C      0.920080000000     0.624010000000     0.278970000000     0          
C3ED     C      0.920700000000     0.604500000000     0.307700000000     0          
H1ED     H      0.936300000000     0.607600000000     0.325400000000     0          
O1ED     O      0.965830000000     0.660710000000     0.291130000000     0          
Zr1CA    Zr     0.782035000000     0.545343000000     0.217965000000     0          
Zr1      Zr     0.782035000000     0.454657000000     0.217965000000     0          
O2       O      0.771340000000     0.455600000000     0.271340000000     0          
O4       O      0.779400000000     0.399010000000     0.220600000000     0          
O5       O      0.821400000000     0.455400000000     0.178600000000     0          
O6       O      0.759920000000     0.500000000000     0.196800000000     0          
S1D      S      0.889080000000     0.389080000000     0.251090000000     0          
C1D      C      0.942620000000     0.346890000000     0.269940000000     0          
C2D      C      0.920080000000     0.375990000000     0.278970000000     0          
C3D      C      0.920700000000     0.395500000000     0.307700000000     0          
H1D      H      0.936300000000     0.392400000000     0.325400000000     0          
C1ED     C      0.846890000000     0.442620000000     0.269940000000     0          
C2ED     C      0.875990000000     0.420080000000     0.278970000000     0          
C3ED     C      0.895500000000     0.420700000000     0.307700000000     0          
H1ED     H      0.892400000000     0.436300000000     0.325400000000     0          
O1ED     O      0.839290000000     0.465830000000     0.291130000000     0          
O3ED     O      0.831370000000     0.436170000000     0.242420000000     0          
O2UB     O      0.728660000000     0.455600000000     0.228660000000     0          
O4UB     O      0.720600000000     0.399010000000     0.279400000000     0          
O5UB     O      0.678600000000     0.455400000000     0.321400000000     0          
O6UB     O      0.740080000000     0.500000000000     0.303200000000     0          
Zr2UB    Zr     0.705533000000     0.500000000000     0.205533000000     0          
O2L      O      0.771340000000     0.544400000000     0.271340000000     0          
O3UB     O      0.757580000000     0.436170000000     0.168630000000     0          
O3XF     O      0.668630000000     0.436170000000     0.257580000000     0          
O6L      O      0.696800000000     0.500000000000     0.259920000000     0          
O6GC     O      0.803200000000     0.500000000000     0.240080000000     0          
O4       O      0.279400000000     0.600990000000     0.720600000000     0          
O5       O      0.321400000000     0.544600000000     0.678600000000     0          
O2UB     O      0.271340000000     0.544400000000     0.771340000000     0          
O4UB     O      0.220600000000     0.600990000000     0.779400000000     0          
O5UB     O      0.178600000000     0.544600000000     0.821400000000     0          
O3UB     O      0.331370000000     0.563830000000     0.742420000000     0          
O3XF     O      0.242420000000     0.563830000000     0.831370000000     0          
O4       O      0.279400000000     0.399010000000     0.279400000000     0          
O5       O      0.321400000000     0.455400000000     0.321400000000     0          
O2UB     O      0.271340000000     0.455600000000     0.228660000000     0          
O4UB     O      0.220600000000     0.399010000000     0.220600000000     0          
O5UB     O      0.178600000000     0.455400000000     0.178600000000     0          
O3UB     O      0.331370000000     0.436170000000     0.257580000000     0          
O3XF     O      0.242420000000     0.436170000000     0.168630000000     0          
O4       O      0.720600000000     0.600990000000     0.279400000000     0          
O5       O      0.678600000000     0.544600000000     0.321400000000     0          
O2UB     O      0.728660000000     0.544400000000     0.228660000000     0          
O4UB     O      0.779400000000     0.600990000000     0.220600000000     0          
O5UB     O      0.821400000000     0.544600000000     0.178600000000     0          
O3UB     O      0.668630000000     0.563830000000     0.257580000000     0          
O3XF     O      0.757580000000     0.563830000000     0.168630000000     0          
O4       O      0.720600000000     0.399010000000     0.720600000000     0          
O5       O      0.678600000000     0.455400000000     0.678600000000     0          
O2UB     O      0.728660000000     0.455600000000     0.771340000000     0          
O4UB     O      0.779400000000     0.399010000000     0.779400000000     0          
O5UB     O      0.821400000000     0.455400000000     0.821400000000     0          
O3UB     O      0.668630000000     0.436170000000     0.742420000000     0          
O3XF     O      0.757580000000     0.436170000000     0.831370000000     0          
S1       S      0.748910000000     0.110920000000     0.610920000000     0          
C1       C      0.730060000000     0.153110000000     0.557380000000     0          
C2       C      0.721030000000     0.124010000000     0.579920000000     0          
C3       C      0.692300000000     0.104500000000     0.579300000000     0          
H1       H      0.674600000000     0.107600000000     0.563700000000     0          
O1       O      0.708870000000     0.160710000000     0.534170000000     0          
C1JD     C      0.730060000000     0.057380000000     0.653110000000     0          
C2JD     C      0.721030000000     0.079920000000     0.624010000000     0          
C3JD     C      0.692300000000     0.079300000000     0.604500000000     0          
H1JD     H      0.674600000000     0.063700000000     0.607600000000     0          
O1JD     O      0.708870000000     0.034170000000     0.660710000000     0          
S1D      S      0.610920000000     0.248910000000     0.610920000000     0          
C1D      C      0.557380000000     0.230060000000     0.653110000000     0          
C2D      C      0.579920000000     0.221030000000     0.624010000000     0          
C3D      C      0.579300000000     0.192300000000     0.604500000000     0          
H1D      H      0.563700000000     0.174600000000     0.607600000000     0          
O1D      O      0.534170000000     0.208870000000     0.660710000000     0          
O3D      O      0.563830000000     0.257580000000     0.668630000000     0          
C1ED     C      0.653110000000     0.230060000000     0.557380000000     0          
C2ED     C      0.624010000000     0.221030000000     0.579920000000     0          
C3ED     C      0.604500000000     0.192300000000     0.579300000000     0          
H1ED     H      0.607600000000     0.174600000000     0.563700000000     0          
O1ED     O      0.660710000000     0.208870000000     0.534170000000     0          
Zr1CA    Zr     0.545343000000     0.282035000000     0.717965000000     0          
Zr2D     Zr     0.500000000000     0.205533000000     0.705530000000     0          
O1L      O      0.660710000000     0.208870000000     0.465830000000     0          
O1SC     O      0.708870000000     0.160710000000     0.465830000000     0          
S1       S      0.389080000000     0.248910000000     0.610920000000     0          
C1       C      0.346890000000     0.230060000000     0.557380000000     0          
C2       C      0.375990000000     0.221030000000     0.579920000000     0          
C3       C      0.395500000000     0.192300000000     0.579300000000     0          
H1       H      0.392400000000     0.174600000000     0.563700000000     0          
O1       O      0.339290000000     0.208870000000     0.534170000000     0          
C1JD     C      0.442620000000     0.230060000000     0.653110000000     0          
C2JD     C      0.420080000000     0.221030000000     0.624010000000     0          
C3JD     C      0.420700000000     0.192300000000     0.604500000000     0          
H1JD     H      0.436300000000     0.174600000000     0.607600000000     0          
O1JD     O      0.465830000000     0.208870000000     0.660710000000     0          
O3JD     O      0.436170000000     0.257580000000     0.668630000000     0          
S1D      S      0.251090000000     0.110920000000     0.610920000000     0          
C1D      C      0.269940000000     0.057380000000     0.653110000000     0          
C2D      C      0.278970000000     0.079920000000     0.624010000000     0          
C3D      C      0.307700000000     0.079300000000     0.604500000000     0          
H1D      H      0.325400000000     0.063700000000     0.607600000000     0          
O1D      O      0.291130000000     0.034170000000     0.660710000000     0          
C1ED     C      0.269940000000     0.153110000000     0.557380000000     0          
C2ED     C      0.278970000000     0.124010000000     0.579920000000     0          
C3ED     C      0.307700000000     0.104500000000     0.579300000000     0          
H1ED     H      0.325400000000     0.107600000000     0.563700000000     0          
O1ED     O      0.291130000000     0.160710000000     0.534170000000     0          
Zr1H     Zr     0.454657000000     0.282035000000     0.717965000000     0          
O1L      O      0.291130000000     0.160710000000     0.465830000000     0          
O1SC     O      0.339290000000     0.208870000000     0.465830000000     0          
S1       S      0.251090000000     0.889080000000     0.610920000000     0          
C1       C      0.269940000000     0.846890000000     0.557380000000     0          
C2       C      0.278970000000     0.875990000000     0.579920000000     0          
C3       C      0.307700000000     0.895500000000     0.579300000000     0          
H1       H      0.325400000000     0.892400000000     0.563700000000     0          
O1       O      0.291130000000     0.839290000000     0.534170000000     0          
C1JD     C      0.269940000000     0.942620000000     0.653110000000     0          
C2JD     C      0.278970000000     0.920080000000     0.624010000000     0          
C3JD     C      0.307700000000     0.920700000000     0.604500000000     0          
H1JD     H      0.325400000000     0.936300000000     0.607600000000     0          
O1JD     O      0.291130000000     0.965830000000     0.660710000000     0          
S1D      S      0.389080000000     0.751090000000     0.610920000000     0          
C1D      C      0.442620000000     0.769940000000     0.653110000000     0          
C2D      C      0.420080000000     0.778970000000     0.624010000000     0          
C3D      C      0.420700000000     0.807700000000     0.604500000000     0          
H1D      H      0.436300000000     0.825400000000     0.607600000000     0          
O1D      O      0.465830000000     0.791130000000     0.660710000000     0          
O3D      O      0.436170000000     0.742420000000     0.668630000000     0          
C1ED     C      0.346890000000     0.769940000000     0.557380000000     0          
C2ED     C      0.375990000000     0.778970000000     0.579920000000     0          
C3ED     C      0.395500000000     0.807700000000     0.579300000000     0          
H1ED     H      0.392400000000     0.825400000000     0.563700000000     0          
O1ED     O      0.339290000000     0.791130000000     0.534170000000     0          
Zr1CA    Zr     0.454657000000     0.717965000000     0.717965000000     0          
Zr2D     Zr     0.500000000000     0.794467000000     0.705530000000     0          
O1L      O      0.339290000000     0.791130000000     0.465830000000     0          
O1SC     O      0.291130000000     0.839290000000     0.465830000000     0          
S1       S      0.610920000000     0.751090000000     0.610920000000     0          
C1       C      0.653110000000     0.769940000000     0.557380000000     0          
C2       C      0.624010000000     0.778970000000     0.579920000000     0          
C3       C      0.604500000000     0.807700000000     0.579300000000     0          
H1       H      0.607600000000     0.825400000000     0.563700000000     0          
O1       O      0.660710000000     0.791130000000     0.534170000000     0          
C1JD     C      0.557380000000     0.769940000000     0.653110000000     0          
C2JD     C      0.579920000000     0.778970000000     0.624010000000     0          
C3JD     C      0.579300000000     0.807700000000     0.604500000000     0          
H1JD     H      0.563700000000     0.825400000000     0.607600000000     0          
O1JD     O      0.534170000000     0.791130000000     0.660710000000     0          
O3JD     O      0.563830000000     0.742420000000     0.668630000000     0          
S1D      S      0.748910000000     0.889080000000     0.610920000000     0          
C1D      C      0.730060000000     0.942620000000     0.653110000000     0          
C2D      C      0.721030000000     0.920080000000     0.624010000000     0          
C3D      C      0.692300000000     0.920700000000     0.604500000000     0          
H1D      H      0.674600000000     0.936300000000     0.607600000000     0          
O1D      O      0.708870000000     0.965830000000     0.660710000000     0          
C1ED     C      0.730060000000     0.846890000000     0.557380000000     0          
C2ED     C      0.721030000000     0.875990000000     0.579920000000     0          
C3ED     C      0.692300000000     0.895500000000     0.579300000000     0          
H1ED     H      0.674600000000     0.892400000000     0.563700000000     0          
O1ED     O      0.708870000000     0.839290000000     0.534170000000     0          
Zr1H     Zr     0.545343000000     0.717965000000     0.717965000000     0          
O1L      O      0.708870000000     0.839290000000     0.465830000000     0          
O1SC     O      0.660710000000     0.791130000000     0.465830000000     0          
S1       S      0.748910000000     0.889080000000     0.389080000000     0          
C1       C      0.730060000000     0.846890000000     0.442620000000     0          
C2       C      0.721030000000     0.875990000000     0.420080000000     0          
C3       C      0.692300000000     0.895500000000     0.420700000000     0          
H1       H      0.674600000000     0.892400000000     0.436300000000     0          
C1JD     C      0.730060000000     0.942620000000     0.346890000000     0          
C2JD     C      0.721030000000     0.920080000000     0.375990000000     0          
C3JD     C      0.692300000000     0.920700000000     0.395500000000     0          
H1JD     H      0.674600000000     0.936300000000     0.392400000000     0          
O1JD     O      0.708870000000     0.965830000000     0.339290000000     0          
S1D      S      0.610920000000     0.751090000000     0.389080000000     0          
C1D      C      0.557380000000     0.769940000000     0.346890000000     0          
C2D      C      0.579920000000     0.778970000000     0.375990000000     0          
C3D      C      0.579300000000     0.807700000000     0.395500000000     0          
H1D      H      0.563700000000     0.825400000000     0.392400000000     0          
O1D      O      0.534170000000     0.791130000000     0.339290000000     0          
O3D      O      0.563830000000     0.742420000000     0.331370000000     0          
C1ED     C      0.653110000000     0.769940000000     0.442620000000     0          
C2ED     C      0.624010000000     0.778970000000     0.420080000000     0          
C3ED     C      0.604500000000     0.807700000000     0.420700000000     0          
H1ED     H      0.607600000000     0.825400000000     0.436300000000     0          
Zr1CA    Zr     0.545343000000     0.717965000000     0.282035000000     0          
Zr2D     Zr     0.500000000000     0.794467000000     0.294470000000     0          
S1       S      0.610920000000     0.248910000000     0.389080000000     0          
C1       C      0.653110000000     0.230060000000     0.442620000000     0          
C2       C      0.624010000000     0.221030000000     0.420080000000     0          
C3       C      0.604500000000     0.192300000000     0.420700000000     0          
H1       H      0.607600000000     0.174600000000     0.436300000000     0          
C1JD     C      0.557380000000     0.230060000000     0.346890000000     0          
C2JD     C      0.579920000000     0.221030000000     0.375990000000     0          
C3JD     C      0.579300000000     0.192300000000     0.395500000000     0          
H1JD     H      0.563700000000     0.174600000000     0.392400000000     0          
O1JD     O      0.534170000000     0.208870000000     0.339290000000     0          
O3JD     O      0.563830000000     0.257580000000     0.331370000000     0          
S1D      S      0.748910000000     0.110920000000     0.389080000000     0          
C1D      C      0.730060000000     0.057380000000     0.346890000000     0          
C2D      C      0.721030000000     0.079920000000     0.375990000000     0          
C3D      C      0.692300000000     0.079300000000     0.395500000000     0          
H1D      H      0.674600000000     0.063700000000     0.392400000000     0          
O1D      O      0.708870000000     0.034170000000     0.339290000000     0          
C1ED     C      0.730060000000     0.153110000000     0.442620000000     0          
C2ED     C      0.721030000000     0.124010000000     0.420080000000     0          
C3ED     C      0.692300000000     0.104500000000     0.420700000000     0          
H1ED     H      0.674600000000     0.107600000000     0.436300000000     0          
Zr1H     Zr     0.545343000000     0.282035000000     0.282035000000     0          
Zr2H     Zr     0.500000000000     0.205533000000     0.294470000000     0          
S1       S      0.251090000000     0.110920000000     0.389080000000     0          
C1       C      0.269940000000     0.153110000000     0.442620000000     0          
C2       C      0.278970000000     0.124010000000     0.420080000000     0          
C3       C      0.307700000000     0.104500000000     0.420700000000     0          
H1       H      0.325400000000     0.107600000000     0.436300000000     0          
C1JD     C      0.269940000000     0.057380000000     0.346890000000     0          
C2JD     C      0.278970000000     0.079920000000     0.375990000000     0          
C3JD     C      0.307700000000     0.079300000000     0.395500000000     0          
H1JD     H      0.325400000000     0.063700000000     0.392400000000     0          
O1JD     O      0.291130000000     0.034170000000     0.339290000000     0          
S1D      S      0.389080000000     0.248910000000     0.389080000000     0          
C1D      C      0.442620000000     0.230060000000     0.346890000000     0          
C2D      C      0.420080000000     0.221030000000     0.375990000000     0          
C3D      C      0.420700000000     0.192300000000     0.395500000000     0          
H1D      H      0.436300000000     0.174600000000     0.392400000000     0          
O1D      O      0.465830000000     0.208870000000     0.339290000000     0          
O3D      O      0.436170000000     0.257580000000     0.331370000000     0          
C1ED     C      0.346890000000     0.230060000000     0.442620000000     0          
C2ED     C      0.375990000000     0.221030000000     0.420080000000     0          
C3ED     C      0.395500000000     0.192300000000     0.420700000000     0          
H1ED     H      0.392400000000     0.174600000000     0.436300000000     0          
Zr1CA    Zr     0.454657000000     0.282035000000     0.282035000000     0          
S1       S      0.389080000000     0.751090000000     0.389080000000     0          
C1       C      0.346890000000     0.769940000000     0.442620000000     0          
C2       C      0.375990000000     0.778970000000     0.420080000000     0          
C3       C      0.395500000000     0.807700000000     0.420700000000     0          
H1       H      0.392400000000     0.825400000000     0.436300000000     0          
C1JD     C      0.442620000000     0.769940000000     0.346890000000     0          
C2JD     C      0.420080000000     0.778970000000     0.375990000000     0          
C3JD     C      0.420700000000     0.807700000000     0.395500000000     0          
H1JD     H      0.436300000000     0.825400000000     0.392400000000     0          
O1JD     O      0.465830000000     0.791130000000     0.339290000000     0          
O3JD     O      0.436170000000     0.742420000000     0.331370000000     0          
S1D      S      0.251090000000     0.889080000000     0.389080000000     0          
C1D      C      0.269940000000     0.942620000000     0.346890000000     0          
C2D      C      0.278970000000     0.920080000000     0.375990000000     0          
C3D      C      0.307700000000     0.920700000000     0.395500000000     0          
H1D      H      0.325400000000     0.936300000000     0.392400000000     0          
O1D      O      0.291130000000     0.965830000000     0.339290000000     0          
C1ED     C      0.269940000000     0.846890000000     0.442620000000     0          
C2ED     C      0.278970000000     0.875990000000     0.420080000000     0          
C3ED     C      0.307700000000     0.895500000000     0.420700000000     0          
H1ED     H      0.325400000000     0.892400000000     0.436300000000     0          
Zr1H     Zr     0.454657000000     0.717965000000     0.282035000000     0          
Zr1      Zr     0.545343000000     0.217965000000     0.782035000000     0          
O2       O      0.544400000000     0.228660000000     0.728660000000     0          
O4       O      0.600990000000     0.220600000000     0.779400000000     0          
O5       O      0.544600000000     0.178600000000     0.821400000000     0          
O6       O      0.500000000000     0.240080000000     0.803200000000     0          
S1D      S      0.610920000000     0.110920000000     0.748910000000     0          
C1D      C      0.653110000000     0.057380000000     0.730060000000     0          
C2D      C      0.624010000000     0.079920000000     0.721030000000     0          
C3D      C      0.604500000000     0.079300000000     0.692300000000     0          
H1D      H      0.607600000000     0.063700000000     0.674600000000     0          
O1D      O      0.660710000000     0.034170000000     0.708870000000     0          
C1ED     C      0.557380000000     0.153110000000     0.730060000000     0          
C2ED     C      0.579920000000     0.124010000000     0.721030000000     0          
C3ED     C      0.579300000000     0.104500000000     0.692300000000     0          
H1ED     H      0.563700000000     0.107600000000     0.674600000000     0          
O1ED     O      0.534170000000     0.160710000000     0.708870000000     0          
O3ED     O      0.563830000000     0.168630000000     0.757580000000     0          
O2UB     O      0.544400000000     0.271340000000     0.771340000000     0          
O4UB     O      0.600990000000     0.279400000000     0.720600000000     0          
O5UB     O      0.544600000000     0.321400000000     0.678600000000     0          
O6UB     O      0.500000000000     0.259920000000     0.696800000000     0          
Zr1GC    Zr     0.454657000000     0.217965000000     0.782035000000     0          
Zr2UB    Zr     0.500000000000     0.294467000000     0.794467000000     0          
O1L      O      0.465830000000     0.160710000000     0.708870000000     0          
O2L      O      0.455600000000     0.228660000000     0.728660000000     0          
O3UB     O      0.563830000000     0.242420000000     0.831370000000     0          
O3XF     O      0.563830000000     0.331370000000     0.742420000000     0          
O6L      O      0.500000000000     0.303200000000     0.740080000000     0          
O6GC     O      0.500000000000     0.196800000000     0.759920000000     0          
S1D      S      0.389080000000     0.110920000000     0.748910000000     0          
C1D      C      0.442620000000     0.153110000000     0.730060000000     0          
C2D      C      0.420080000000     0.124010000000     0.721030000000     0          
C3D      C      0.420700000000     0.104500000000     0.692300000000     0          
H1D      H      0.436300000000     0.107600000000     0.674600000000     0          
O3D      O      0.436170000000     0.168630000000     0.757580000000     0          
C1ED     C      0.346890000000     0.057380000000     0.730060000000     0          
C2ED     C      0.375990000000     0.079920000000     0.721030000000     0          
C3ED     C      0.395500000000     0.079300000000     0.692300000000     0          
H1ED     H      0.392400000000     0.063700000000     0.674600000000     0          
O1ED     O      0.339290000000     0.034170000000     0.708870000000     0          
O1L      O      0.339290000000     0.965830000000     0.708870000000     0          
Zr1      Zr     0.454657000000     0.782035000000     0.782035000000     0          
O2       O      0.455600000000     0.771340000000     0.728660000000     0          
O4       O      0.399010000000     0.779400000000     0.779400000000     0          
O5       O      0.455400000000     0.821400000000     0.821400000000     0          
O6       O      0.500000000000     0.759920000000     0.803200000000     0          
S1D      S      0.389080000000     0.889080000000     0.748910000000     0          
C1D      C      0.346890000000     0.942620000000     0.730060000000     0          
C2D      C      0.375990000000     0.920080000000     0.721030000000     0          
C3D      C      0.395500000000     0.920700000000     0.692300000000     0          
H1D      H      0.392400000000     0.936300000000     0.674600000000     0          
C1ED     C      0.442620000000     0.846890000000     0.730060000000     0          
C2ED     C      0.420080000000     0.875990000000     0.721030000000     0          
C3ED     C      0.420700000000     0.895500000000     0.692300000000     0          
H1ED     H      0.436300000000     0.892400000000     0.674600000000     0          
O1ED     O      0.465830000000     0.839290000000     0.708870000000     0          
O3ED     O      0.436170000000     0.831370000000     0.757580000000     0          
O2UB     O      0.455600000000     0.728660000000     0.771340000000     0          
O4UB     O      0.399010000000     0.720600000000     0.720600000000     0          
O5UB     O      0.455400000000     0.678600000000     0.678600000000     0          
O6UB     O      0.500000000000     0.740080000000     0.696800000000     0          
Zr1GC    Zr     0.545343000000     0.782035000000     0.782035000000     0          
Zr2UB    Zr     0.500000000000     0.705533000000     0.794467000000     0          
O1L      O      0.534170000000     0.839290000000     0.708870000000     0          
O2L      O      0.544400000000     0.771340000000     0.728660000000     0          
O3UB     O      0.436170000000     0.757580000000     0.831370000000     0          
O3XF     O      0.436170000000     0.668630000000     0.742420000000     0          
O6L      O      0.500000000000     0.696800000000     0.740080000000     0          
O6GC     O      0.500000000000     0.803200000000     0.759920000000     0          
S1D      S      0.610920000000     0.889080000000     0.748910000000     0          
C1D      C      0.557380000000     0.846890000000     0.730060000000     0          
C2D      C      0.579920000000     0.875990000000     0.721030000000     0          
C3D      C      0.579300000000     0.895500000000     0.692300000000     0          
H1D      H      0.563700000000     0.892400000000     0.674600000000     0          
O3D      O      0.563830000000     0.831370000000     0.757580000000     0          
C1ED     C      0.653110000000     0.942620000000     0.730060000000     0          
C2ED     C      0.624010000000     0.920080000000     0.721030000000     0          
C3ED     C      0.604500000000     0.920700000000     0.692300000000     0          
H1ED     H      0.607600000000     0.936300000000     0.674600000000     0          
O1ED     O      0.660710000000     0.965830000000     0.708870000000     0          
Zr1      Zr     0.545343000000     0.782035000000     0.217965000000     0          
O2       O      0.544400000000     0.771340000000     0.271340000000     0          
O4       O      0.600990000000     0.779400000000     0.220600000000     0          
O5       O      0.544600000000     0.821400000000     0.178600000000     0          
O6       O      0.500000000000     0.759920000000     0.196800000000     0          
S1D      S      0.610920000000     0.889080000000     0.251090000000     0          
C1D      C      0.653110000000     0.942620000000     0.269940000000     0          
C2D      C      0.624010000000     0.920080000000     0.278970000000     0          
C3D      C      0.604500000000     0.920700000000     0.307700000000     0          
H1D      H      0.607600000000     0.936300000000     0.325400000000     0          
O1D      O      0.660710000000     0.965830000000     0.291130000000     0          
C1ED     C      0.557380000000     0.846890000000     0.269940000000     0          
C2ED     C      0.579920000000     0.875990000000     0.278970000000     0          
C3ED     C      0.579300000000     0.895500000000     0.307700000000     0          
H1ED     H      0.563700000000     0.892400000000     0.325400000000     0          
O1ED     O      0.534170000000     0.839290000000     0.291130000000     0          
O3ED     O      0.563830000000     0.831370000000     0.242420000000     0          
O2UB     O      0.544400000000     0.728660000000     0.228660000000     0          
O4UB     O      0.600990000000     0.720600000000     0.279400000000     0          
O5UB     O      0.544600000000     0.678600000000     0.321400000000     0          
O6UB     O      0.500000000000     0.740080000000     0.303200000000     0          
Zr1GC    Zr     0.454657000000     0.782035000000     0.217965000000     0          
Zr2UB    Zr     0.500000000000     0.705533000000     0.205533000000     0          
O1L      O      0.465830000000     0.839290000000     0.291130000000     0          
O2L      O      0.455600000000     0.771340000000     0.271340000000     0          
O3UB     O      0.563830000000     0.757580000000     0.168630000000     0          
O3XF     O      0.563830000000     0.668630000000     0.257580000000     0          
O6L      O      0.500000000000     0.696800000000     0.259920000000     0          
O6GC     O      0.500000000000     0.803200000000     0.240080000000     0          
S1D      S      0.610920000000     0.110920000000     0.251090000000     0          
C1D      C      0.557380000000     0.153110000000     0.269940000000     0          
C2D      C      0.579920000000     0.124010000000     0.278970000000     0          
C3D      C      0.579300000000     0.104500000000     0.307700000000     0          
H1D      H      0.563700000000     0.107600000000     0.325400000000     0          
O1D      O      0.534170000000     0.160710000000     0.291130000000     0          
O3D      O      0.563830000000     0.168630000000     0.242420000000     0          
C1ED     C      0.653110000000     0.057380000000     0.269940000000     0          
C2ED     C      0.624010000000     0.079920000000     0.278970000000     0          
C3ED     C      0.604500000000     0.079300000000     0.307700000000     0          
H1ED     H      0.607600000000     0.063700000000     0.325400000000     0          
O1ED     O      0.660710000000     0.034170000000     0.291130000000     0          
Zr1CA    Zr     0.545343000000     0.217965000000     0.217965000000     0          
Zr1      Zr     0.454657000000     0.217965000000     0.217965000000     0          
O2       O      0.455600000000     0.228660000000     0.271340000000     0          
O4       O      0.399010000000     0.220600000000     0.220600000000     0          
O5       O      0.455400000000     0.178600000000     0.178600000000     0          
O6       O      0.500000000000     0.240080000000     0.196800000000     0          
S1D      S      0.389080000000     0.110920000000     0.251090000000     0          
C1D      C      0.346890000000     0.057380000000     0.269940000000     0          
C2D      C      0.375990000000     0.079920000000     0.278970000000     0          
C3D      C      0.395500000000     0.079300000000     0.307700000000     0          
H1D      H      0.392400000000     0.063700000000     0.325400000000     0          
O1D      O      0.339290000000     0.034170000000     0.291130000000     0          
C1ED     C      0.442620000000     0.153110000000     0.269940000000     0          
C2ED     C      0.420080000000     0.124010000000     0.278970000000     0          
C3ED     C      0.420700000000     0.104500000000     0.307700000000     0          
H1ED     H      0.436300000000     0.107600000000     0.325400000000     0          
O1ED     O      0.465830000000     0.160710000000     0.291130000000     0          
O3ED     O      0.436170000000     0.168630000000     0.242420000000     0          
O2UB     O      0.455600000000     0.271340000000     0.228660000000     0          
O4UB     O      0.399010000000     0.279400000000     0.279400000000     0          
O5UB     O      0.455400000000     0.321400000000     0.321400000000     0          
O6UB     O      0.500000000000     0.259920000000     0.303200000000     0          
Zr2UB    Zr     0.500000000000     0.294467000000     0.205533000000     0          
O2L      O      0.544400000000     0.228660000000     0.271340000000     0          
O3UB     O      0.436170000000     0.242420000000     0.168630000000     0          
O3XF     O      0.436170000000     0.331370000000     0.257580000000     0          
O6L      O      0.500000000000     0.303200000000     0.259920000000     0          
O6GC     O      0.500000000000     0.196800000000     0.240080000000     0          
S1D      S      0.389080000000     0.889080000000     0.251090000000     0          
C1D      C      0.442620000000     0.846890000000     0.269940000000     0          
C2D      C      0.420080000000     0.875990000000     0.278970000000     0          
C3D      C      0.420700000000     0.895500000000     0.307700000000     0          
H1D      H      0.436300000000     0.892400000000     0.325400000000     0          
O3D      O      0.436170000000     0.831370000000     0.242420000000     0          
C1ED     C      0.346890000000     0.942620000000     0.269940000000     0          
C2ED     C      0.375990000000     0.920080000000     0.278970000000     0          
C3ED     C      0.395500000000     0.920700000000     0.307700000000     0          
H1ED     H      0.392400000000     0.936300000000     0.325400000000     0          
O1ED     O      0.339290000000     0.965830000000     0.291130000000     0          
O4       O      0.600990000000     0.279400000000     0.279400000000     0          
O5       O      0.544600000000     0.321400000000     0.321400000000     0          
O2UB     O      0.544400000000     0.271340000000     0.228660000000     0          
O4UB     O      0.600990000000     0.220600000000     0.220600000000     0          
O5UB     O      0.544600000000     0.178600000000     0.178600000000     0          
O3UB     O      0.563830000000     0.331370000000     0.257580000000     0          
O3XF     O      0.563830000000     0.242420000000     0.168630000000     0          
O4       O      0.399010000000     0.720600000000     0.279400000000     0          
O5       O      0.455400000000     0.678600000000     0.321400000000     0          
O2UB     O      0.455600000000     0.728660000000     0.228660000000     0          
O4UB     O      0.399010000000     0.779400000000     0.220600000000     0          
O5UB     O      0.455400000000     0.821400000000     0.178600000000     0          
O3UB     O      0.436170000000     0.668630000000     0.257580000000     0          
O3XF     O      0.436170000000     0.757580000000     0.168630000000     0          
O4       O      0.600990000000     0.720600000000     0.720600000000     0          
O5       O      0.544600000000     0.678600000000     0.678600000000     0          
O2UB     O      0.544400000000     0.728660000000     0.771340000000     0          
O4UB     O      0.600990000000     0.779400000000     0.779400000000     0          
O5UB     O      0.544600000000     0.821400000000     0.821400000000     0          
O3UB     O      0.563830000000     0.668630000000     0.742420000000     0          
O3XF     O      0.563830000000     0.757580000000     0.831370000000     0          
O4       O      0.399010000000     0.279400000000     0.720600000000     0          
O5       O      0.455400000000     0.321400000000     0.678600000000     0          
O2UB     O      0.455600000000     0.271340000000     0.771340000000     0          
O4UB     O      0.399010000000     0.220600000000     0.779400000000     0          
O5UB     O      0.455400000000     0.178600000000     0.821400000000     0          
O3UB     O      0.436170000000     0.331370000000     0.742420000000     0          
O3XF     O      0.436170000000     0.242420000000     0.831370000000     0          
S1       S      0.748910000000     0.610920000000     0.110920000000     0          
C1       C      0.730060000000     0.653110000000     0.057380000000     0          
C2       C      0.721030000000     0.624010000000     0.079920000000     0          
C3       C      0.692300000000     0.604500000000     0.079300000000     0          
H1       H      0.674600000000     0.607600000000     0.063700000000     0          
O1       O      0.708870000000     0.660710000000     0.034170000000     0          
C1JD     C      0.730060000000     0.557380000000     0.153110000000     0          
C2JD     C      0.721030000000     0.579920000000     0.124010000000     0          
C3JD     C      0.692300000000     0.579300000000     0.104500000000     0          
H1JD     H      0.674600000000     0.563700000000     0.107600000000     0          
O1JD     O      0.708870000000     0.534170000000     0.160710000000     0          
S1D      S      0.610920000000     0.748910000000     0.110920000000     0          
C1D      C      0.557380000000     0.730060000000     0.153110000000     0          
C2D      C      0.579920000000     0.721030000000     0.124010000000     0          
C3D      C      0.579300000000     0.692300000000     0.104500000000     0          
H1D      H      0.563700000000     0.674600000000     0.107600000000     0          
O1D      O      0.534170000000     0.708870000000     0.160710000000     0          
C1ED     C      0.653110000000     0.730060000000     0.057380000000     0          
C2ED     C      0.624010000000     0.721030000000     0.079920000000     0          
C3ED     C      0.604500000000     0.692300000000     0.079300000000     0          
H1ED     H      0.607600000000     0.674600000000     0.063700000000     0          
O1ED     O      0.660710000000     0.708870000000     0.034170000000     0          
O1L      O      0.660710000000     0.708870000000     0.965830000000     0          
O1SC     O      0.708870000000     0.660710000000     0.965830000000     0          
S1       S      0.389080000000     0.748910000000     0.110920000000     0          
C1       C      0.346890000000     0.730060000000     0.057380000000     0          
C2       C      0.375990000000     0.721030000000     0.079920000000     0          
C3       C      0.395500000000     0.692300000000     0.079300000000     0          
H1       H      0.392400000000     0.674600000000     0.063700000000     0          
O1       O      0.339290000000     0.708870000000     0.034170000000     0          
C1JD     C      0.442620000000     0.730060000000     0.153110000000     0          
C2JD     C      0.420080000000     0.721030000000     0.124010000000     0          
C3JD     C      0.420700000000     0.692300000000     0.104500000000     0          
H1JD     H      0.436300000000     0.674600000000     0.107600000000     0          
O1JD     O      0.465830000000     0.708870000000     0.160710000000     0          
S1D      S      0.251090000000     0.610920000000     0.110920000000     0          
C1D      C      0.269940000000     0.557380000000     0.153110000000     0          
C2D      C      0.278970000000     0.579920000000     0.124010000000     0          
C3D      C      0.307700000000     0.579300000000     0.104500000000     0          
H1D      H      0.325400000000     0.563700000000     0.107600000000     0          
O1D      O      0.291130000000     0.534170000000     0.160710000000     0          
C1ED     C      0.269940000000     0.653110000000     0.057380000000     0          
C2ED     C      0.278970000000     0.624010000000     0.079920000000     0          
C3ED     C      0.307700000000     0.604500000000     0.079300000000     0          
H1ED     H      0.325400000000     0.607600000000     0.063700000000     0          
O1ED     O      0.291130000000     0.660710000000     0.034170000000     0          
O1L      O      0.291130000000     0.660710000000     0.965830000000     0          
O1SC     O      0.339290000000     0.708870000000     0.965830000000     0          
S1       S      0.251090000000     0.389080000000     0.110920000000     0          
C1       C      0.269940000000     0.346890000000     0.057380000000     0          
C2       C      0.278970000000     0.375990000000     0.079920000000     0          
C3       C      0.307700000000     0.395500000000     0.079300000000     0          
H1       H      0.325400000000     0.392400000000     0.063700000000     0          
O1       O      0.291130000000     0.339290000000     0.034170000000     0          
C1JD     C      0.269940000000     0.442620000000     0.153110000000     0          
C2JD     C      0.278970000000     0.420080000000     0.124010000000     0          
C3JD     C      0.307700000000     0.420700000000     0.104500000000     0          
H1JD     H      0.325400000000     0.436300000000     0.107600000000     0          
O1JD     O      0.291130000000     0.465830000000     0.160710000000     0          
S1D      S      0.389080000000     0.251090000000     0.110920000000     0          
C1D      C      0.442620000000     0.269940000000     0.153110000000     0          
C2D      C      0.420080000000     0.278970000000     0.124010000000     0          
C3D      C      0.420700000000     0.307700000000     0.104500000000     0          
H1D      H      0.436300000000     0.325400000000     0.107600000000     0          
O1D      O      0.465830000000     0.291130000000     0.160710000000     0          
C1ED     C      0.346890000000     0.269940000000     0.057380000000     0          
C2ED     C      0.375990000000     0.278970000000     0.079920000000     0          
C3ED     C      0.395500000000     0.307700000000     0.079300000000     0          
H1ED     H      0.392400000000     0.325400000000     0.063700000000     0          
O1ED     O      0.339290000000     0.291130000000     0.034170000000     0          
O1L      O      0.339290000000     0.291130000000     0.965830000000     0          
O1SC     O      0.291130000000     0.339290000000     0.965830000000     0          
S1       S      0.610920000000     0.251090000000     0.110920000000     0          
C1       C      0.653110000000     0.269940000000     0.057380000000     0          
C2       C      0.624010000000     0.278970000000     0.079920000000     0          
C3       C      0.604500000000     0.307700000000     0.079300000000     0          
H1       H      0.607600000000     0.325400000000     0.063700000000     0          
O1       O      0.660710000000     0.291130000000     0.034170000000     0          
C1JD     C      0.557380000000     0.269940000000     0.153110000000     0          
C2JD     C      0.579920000000     0.278970000000     0.124010000000     0          
C3JD     C      0.579300000000     0.307700000000     0.104500000000     0          
H1JD     H      0.563700000000     0.325400000000     0.107600000000     0          
O1JD     O      0.534170000000     0.291130000000     0.160710000000     0          
S1D      S      0.748910000000     0.389080000000     0.110920000000     0          
C1D      C      0.730060000000     0.442620000000     0.153110000000     0          
C2D      C      0.721030000000     0.420080000000     0.124010000000     0          
C3D      C      0.692300000000     0.420700000000     0.104500000000     0          
H1D      H      0.674600000000     0.436300000000     0.107600000000     0          
O1D      O      0.708870000000     0.465830000000     0.160710000000     0          
C1ED     C      0.730060000000     0.346890000000     0.057380000000     0          
C2ED     C      0.721030000000     0.375990000000     0.079920000000     0          
C3ED     C      0.692300000000     0.395500000000     0.079300000000     0          
H1ED     H      0.674600000000     0.392400000000     0.063700000000     0          
O1ED     O      0.708870000000     0.339290000000     0.034170000000     0          
O1L      O      0.708870000000     0.339290000000     0.965830000000     0          
O1SC     O      0.660710000000     0.291130000000     0.965830000000     0          
S1       S      0.748910000000     0.389080000000     0.889080000000     0          
C1       C      0.730060000000     0.346890000000     0.942620000000     0          
C2       C      0.721030000000     0.375990000000     0.920080000000     0          
C3       C      0.692300000000     0.395500000000     0.920700000000     0          
H1       H      0.674600000000     0.392400000000     0.936300000000     0          
C1JD     C      0.730060000000     0.442620000000     0.846890000000     0          
C2JD     C      0.721030000000     0.420080000000     0.875990000000     0          
C3JD     C      0.692300000000     0.420700000000     0.895500000000     0          
H1JD     H      0.674600000000     0.436300000000     0.892400000000     0          
O1JD     O      0.708870000000     0.465830000000     0.839290000000     0          
S1D      S      0.610920000000     0.251090000000     0.889080000000     0          
C1D      C      0.557380000000     0.269940000000     0.846890000000     0          
C2D      C      0.579920000000     0.278970000000     0.875990000000     0          
C3D      C      0.579300000000     0.307700000000     0.895500000000     0          
H1D      H      0.563700000000     0.325400000000     0.892400000000     0          
O1D      O      0.534170000000     0.291130000000     0.839290000000     0          
C1ED     C      0.653110000000     0.269940000000     0.942620000000     0          
C2ED     C      0.624010000000     0.278970000000     0.920080000000     0          
C3ED     C      0.604500000000     0.307700000000     0.920700000000     0          
H1ED     H      0.607600000000     0.325400000000     0.936300000000     0          
S1       S      0.610920000000     0.748910000000     0.889080000000     0          
C1       C      0.653110000000     0.730060000000     0.942620000000     0          
C2       C      0.624010000000     0.721030000000     0.920080000000     0          
C3       C      0.604500000000     0.692300000000     0.920700000000     0          
H1       H      0.607600000000     0.674600000000     0.936300000000     0          
C1JD     C      0.557380000000     0.730060000000     0.846890000000     0          
C2JD     C      0.579920000000     0.721030000000     0.875990000000     0          
C3JD     C      0.579300000000     0.692300000000     0.895500000000     0          
H1JD     H      0.563700000000     0.674600000000     0.892400000000     0          
O1JD     O      0.534170000000     0.708870000000     0.839290000000     0          
S1D      S      0.748910000000     0.610920000000     0.889080000000     0          
C1D      C      0.730060000000     0.557380000000     0.846890000000     0          
C2D      C      0.721030000000     0.579920000000     0.875990000000     0          
C3D      C      0.692300000000     0.579300000000     0.895500000000     0          
H1D      H      0.674600000000     0.563700000000     0.892400000000     0          
O1D      O      0.708870000000     0.534170000000     0.839290000000     0          
C1ED     C      0.730060000000     0.653110000000     0.942620000000     0          
C2ED     C      0.721030000000     0.624010000000     0.920080000000     0          
C3ED     C      0.692300000000     0.604500000000     0.920700000000     0          
H1ED     H      0.674600000000     0.607600000000     0.936300000000     0          
S1       S      0.251090000000     0.610920000000     0.889080000000     0          
C1       C      0.269940000000     0.653110000000     0.942620000000     0          
C2       C      0.278970000000     0.624010000000     0.920080000000     0          
C3       C      0.307700000000     0.604500000000     0.920700000000     0          
H1       H      0.325400000000     0.607600000000     0.936300000000     0          
C1JD     C      0.269940000000     0.557380000000     0.846890000000     0          
C2JD     C      0.278970000000     0.579920000000     0.875990000000     0          
C3JD     C      0.307700000000     0.579300000000     0.895500000000     0          
H1JD     H      0.325400000000     0.563700000000     0.892400000000     0          
O1JD     O      0.291130000000     0.534170000000     0.839290000000     0          
S1D      S      0.389080000000     0.748910000000     0.889080000000     0          
C1D      C      0.442620000000     0.730060000000     0.846890000000     0          
C2D      C      0.420080000000     0.721030000000     0.875990000000     0          
C3D      C      0.420700000000     0.692300000000     0.895500000000     0          
H1D      H      0.436300000000     0.674600000000     0.892400000000     0          
O1D      O      0.465830000000     0.708870000000     0.839290000000     0          
C1ED     C      0.346890000000     0.730060000000     0.942620000000     0          
C2ED     C      0.375990000000     0.721030000000     0.920080000000     0          
C3ED     C      0.395500000000     0.692300000000     0.920700000000     0          
H1ED     H      0.392400000000     0.674600000000     0.936300000000     0          
S1       S      0.389080000000     0.251090000000     0.889080000000     0          
C1       C      0.346890000000     0.269940000000     0.942620000000     0          
C2       C      0.375990000000     0.278970000000     0.920080000000     0          
C3       C      0.395500000000     0.307700000000     0.920700000000     0          
H1       H      0.392400000000     0.325400000000     0.936300000000     0          
C1JD     C      0.442620000000     0.269940000000     0.846890000000     0          
C2JD     C      0.420080000000     0.278970000000     0.875990000000     0          
C3JD     C      0.420700000000     0.307700000000     0.895500000000     0          
H1JD     H      0.436300000000     0.325400000000     0.892400000000     0          
O1JD     O      0.465830000000     0.291130000000     0.839290000000     0          
S1D      S      0.251090000000     0.389080000000     0.889080000000     0          
C1D      C      0.269940000000     0.442620000000     0.846890000000     0          
C2D      C      0.278970000000     0.420080000000     0.875990000000     0          
C3D      C      0.307700000000     0.420700000000     0.895500000000     0          
H1D      H      0.325400000000     0.436300000000     0.892400000000     0          
O1D      O      0.291130000000     0.465830000000     0.839290000000     0          
C1ED     C      0.269940000000     0.346890000000     0.942620000000     0          
C2ED     C      0.278970000000     0.375990000000     0.920080000000     0          
C3ED     C      0.307700000000     0.395500000000     0.920700000000     0          
H1ED     H      0.325400000000     0.392400000000     0.936300000000     0          
S1D      S      0.610920000000     0.610920000000     0.248910000000     0          
C1D      C      0.653110000000     0.557380000000     0.230060000000     0          
C2D      C      0.624010000000     0.579920000000     0.221030000000     0          
C3D      C      0.604500000000     0.579300000000     0.192300000000     0          
H1D      H      0.607600000000     0.563700000000     0.174600000000     0          
O1D      O      0.660710000000     0.534170000000     0.208870000000     0          
C1ED     C      0.557380000000     0.653110000000     0.230060000000     0          
C2ED     C      0.579920000000     0.624010000000     0.221030000000     0          
C3ED     C      0.579300000000     0.604500000000     0.192300000000     0          
H1ED     H      0.563700000000     0.607600000000     0.174600000000     0          
O1ED     O      0.534170000000     0.660710000000     0.208870000000     0          
O1L      O      0.465830000000     0.660710000000     0.208870000000     0          
S1D      S      0.389080000000     0.610920000000     0.248910000000     0          
C1D      C      0.442620000000     0.653110000000     0.230060000000     0          
C2D      C      0.420080000000     0.624010000000     0.221030000000     0          
C3D      C      0.420700000000     0.604500000000     0.192300000000     0          
H1D      H      0.436300000000     0.607600000000     0.174600000000     0          
C1ED     C      0.346890000000     0.557380000000     0.230060000000     0          
C2ED     C      0.375990000000     0.579920000000     0.221030000000     0          
C3ED     C      0.395500000000     0.579300000000     0.192300000000     0          
H1ED     H      0.392400000000     0.563700000000     0.174600000000     0          
O1ED     O      0.339290000000     0.534170000000     0.208870000000     0          
O1L      O      0.339290000000     0.465830000000     0.208870000000     0          
S1D      S      0.389080000000     0.389080000000     0.248910000000     0          
C1D      C      0.346890000000     0.442620000000     0.230060000000     0          
C2D      C      0.375990000000     0.420080000000     0.221030000000     0          
C3D      C      0.395500000000     0.420700000000     0.192300000000     0          
H1D      H      0.392400000000     0.436300000000     0.174600000000     0          
C1ED     C      0.442620000000     0.346890000000     0.230060000000     0          
C2ED     C      0.420080000000     0.375990000000     0.221030000000     0          
C3ED     C      0.420700000000     0.395500000000     0.192300000000     0          
H1ED     H      0.436300000000     0.392400000000     0.174600000000     0          
O1ED     O      0.465830000000     0.339290000000     0.208870000000     0          
O1L      O      0.534170000000     0.339290000000     0.208870000000     0          
S1D      S      0.610920000000     0.389080000000     0.248910000000     0          
C1D      C      0.557380000000     0.346890000000     0.230060000000     0          
C2D      C      0.579920000000     0.375990000000     0.221030000000     0          
C3D      C      0.579300000000     0.395500000000     0.192300000000     0          
H1D      H      0.563700000000     0.392400000000     0.174600000000     0          
C1ED     C      0.653110000000     0.442620000000     0.230060000000     0          
C2ED     C      0.624010000000     0.420080000000     0.221030000000     0          
C3ED     C      0.604500000000     0.420700000000     0.192300000000     0          
H1ED     H      0.607600000000     0.436300000000     0.174600000000     0          
O1ED     O      0.660710000000     0.465830000000     0.208870000000     0          
S1D      S      0.610920000000     0.389080000000     0.751090000000     0          
C1D      C      0.653110000000     0.442620000000     0.769940000000     0          
C2D      C      0.624010000000     0.420080000000     0.778970000000     0          
C3D      C      0.604500000000     0.420700000000     0.807700000000     0          
H1D      H      0.607600000000     0.436300000000     0.825400000000     0          
O1D      O      0.660710000000     0.465830000000     0.791130000000     0          
C1ED     C      0.557380000000     0.346890000000     0.769940000000     0          
C2ED     C      0.579920000000     0.375990000000     0.778970000000     0          
C3ED     C      0.579300000000     0.395500000000     0.807700000000     0          
H1ED     H      0.563700000000     0.392400000000     0.825400000000     0          
O1ED     O      0.534170000000     0.339290000000     0.791130000000     0          
O1L      O      0.465830000000     0.339290000000     0.791130000000     0          
S1D      S      0.610920000000     0.610920000000     0.751090000000     0          
C1D      C      0.557380000000     0.653110000000     0.769940000000     0          
C2D      C      0.579920000000     0.624010000000     0.778970000000     0          
C3D      C      0.579300000000     0.604500000000     0.807700000000     0          
H1D      H      0.563700000000     0.607600000000     0.825400000000     0          
O1D      O      0.534170000000     0.660710000000     0.791130000000     0          
C1ED     C      0.653110000000     0.557380000000     0.769940000000     0          
C2ED     C      0.624010000000     0.579920000000     0.778970000000     0          
C3ED     C      0.604500000000     0.579300000000     0.807700000000     0          
H1ED     H      0.607600000000     0.563700000000     0.825400000000     0          
O1ED     O      0.660710000000     0.534170000000     0.791130000000     0          
S1D      S      0.389080000000     0.610920000000     0.751090000000     0          
C1D      C      0.346890000000     0.557380000000     0.769940000000     0          
C2D      C      0.375990000000     0.579920000000     0.778970000000     0          
C3D      C      0.395500000000     0.579300000000     0.807700000000     0          
H1D      H      0.392400000000     0.563700000000     0.825400000000     0          
O1D      O      0.339290000000     0.534170000000     0.791130000000     0          
C1ED     C      0.442620000000     0.653110000000     0.769940000000     0          
C2ED     C      0.420080000000     0.624010000000     0.778970000000     0          
C3ED     C      0.420700000000     0.604500000000     0.807700000000     0          
H1ED     H      0.436300000000     0.607600000000     0.825400000000     0          
O1ED     O      0.465830000000     0.660710000000     0.791130000000     0          
S1D      S      0.389080000000     0.389080000000     0.751090000000     0          
C1D      C      0.442620000000     0.346890000000     0.769940000000     0          
C2D      C      0.420080000000     0.375990000000     0.778970000000     0          
C3D      C      0.420700000000     0.395500000000     0.807700000000     0          
H1D      H      0.436300000000     0.392400000000     0.825400000000     0          
C1ED     C      0.346890000000     0.442620000000     0.769940000000     0          
C2ED     C      0.375990000000     0.420080000000     0.778970000000     0          
C3ED     C      0.395500000000     0.420700000000     0.807700000000     0          
H1ED     H      0.392400000000     0.436300000000     0.825400000000     0          
O1ED     O      0.339290000000     0.465830000000     0.791130000000     0          


