data_XICNOO02
_audit_creation_date              2021-02-03
_audit_creation_method            'Materials Studio'
_symmetry_space_group_name_H-M    'P1'
_symmetry_Int_Tables_number       1
_symmetry_cell_setting            triclinic
loop_
_symmetry_equiv_pos_as_xyz
  x,y,z
_cell_length_a                    39.1200
_cell_length_b                    39.1200
_cell_length_c                    39.1200
_cell_angle_alpha                 90.0000
_cell_angle_beta                  90.0000
_cell_angle_gamma                 90.0000
loop_
_atom_site_label
_atom_site_type_symbol
_atom_site_fract_x
_atom_site_fract_y
_atom_site_fract_z
_atom_site_U_iso_or_equiv
_atom_site_adp_type
_atom_site_occupancy
C1     C     0.23033   0.15302   0.05710   0.00000  Uiso   1.00
C2     C     0.22206   0.12316   0.07880   0.00000  Uiso   1.00
C3     C     0.19360   0.10311   0.07790   0.00000  Uiso   1.00
H4     H     0.17299   0.10796   0.05788   0.00000  Uiso   1.00
O5     O     0.20900   0.16051   0.03422   0.00000  Uiso   1.00
O6     O     0.25748   0.16876   0.06406   0.00000  Uiso   1.00
C7     C     0.23033   0.65302   0.55710   0.00000  Uiso   1.00
C8     C     0.22206   0.62316   0.57880   0.00000  Uiso   1.00
C9     C     0.19360   0.60311   0.57790   0.00000  Uiso   1.00
H10    H     0.17299   0.60796   0.55788   0.00000  Uiso   1.00
O11    O     0.20900   0.66051   0.53422   0.00000  Uiso   1.00
O12    O     0.25748   0.66876   0.56406   0.00000  Uiso   1.00
C13    C     0.73033   0.15302   0.55710   0.00000  Uiso   1.00
C14    C     0.72206   0.12316   0.57880   0.00000  Uiso   1.00
C15    C     0.69360   0.10311   0.57790   0.00000  Uiso   1.00
H16    H     0.67299   0.10796   0.55788   0.00000  Uiso   1.00
O17    O     0.70900   0.16051   0.53422   0.00000  Uiso   1.00
O18    O     0.75748   0.16876   0.56406   0.00000  Uiso   1.00
C19    C     0.73033   0.65302   0.05710   0.00000  Uiso   1.00
C20    C     0.72206   0.62316   0.07880   0.00000  Uiso   1.00
C21    C     0.69360   0.60311   0.07790   0.00000  Uiso   1.00
H22    H     0.67299   0.60796   0.05788   0.00000  Uiso   1.00
O23    O     0.70900   0.66051   0.03422   0.00000  Uiso   1.00
O24    O     0.75748   0.66876   0.06406   0.00000  Uiso   1.00
C25    C     0.76967   0.84698   0.05710   0.00000  Uiso   1.00
C26    C     0.77794   0.87684   0.07880   0.00000  Uiso   1.00
C27    C     0.80640   0.89689   0.07790   0.00000  Uiso   1.00
H28    H     0.82701   0.89204   0.05788   0.00000  Uiso   1.00
O29    O     0.79100   0.83949   0.03422   0.00000  Uiso   1.00
O30    O     0.74252   0.83124   0.06406   0.00000  Uiso   1.00
C31    C     0.76967   0.34698   0.55710   0.00000  Uiso   1.00
C32    C     0.77794   0.37684   0.57880   0.00000  Uiso   1.00
C33    C     0.80640   0.39689   0.57790   0.00000  Uiso   1.00
H34    H     0.82701   0.39204   0.55788   0.00000  Uiso   1.00
O35    O     0.79100   0.33949   0.53422   0.00000  Uiso   1.00
O36    O     0.74252   0.33124   0.56406   0.00000  Uiso   1.00
C37    C     0.26967   0.84698   0.55710   0.00000  Uiso   1.00
C38    C     0.27794   0.87684   0.57880   0.00000  Uiso   1.00
C39    C     0.30640   0.89689   0.57790   0.00000  Uiso   1.00
H40    H     0.32701   0.89204   0.55788   0.00000  Uiso   1.00
O41    O     0.29100   0.83949   0.53422   0.00000  Uiso   1.00
O42    O     0.24252   0.83124   0.56406   0.00000  Uiso   1.00
C43    C     0.26967   0.34698   0.05710   0.00000  Uiso   1.00
C44    C     0.27794   0.37684   0.07880   0.00000  Uiso   1.00
C45    C     0.30640   0.39689   0.07790   0.00000  Uiso   1.00
H46    H     0.32701   0.39204   0.05788   0.00000  Uiso   1.00
O47    O     0.29100   0.33949   0.03422   0.00000  Uiso   1.00
O48    O     0.24252   0.33124   0.06406   0.00000  Uiso   1.00
C49    C     0.76967   0.15302   0.94290   0.00000  Uiso   1.00
C50    C     0.77794   0.12316   0.92120   0.00000  Uiso   1.00
C51    C     0.80640   0.10311   0.92210   0.00000  Uiso   1.00
H52    H     0.82701   0.10796   0.94212   0.00000  Uiso   1.00
O53    O     0.79100   0.16051   0.96578   0.00000  Uiso   1.00
O54    O     0.74252   0.16876   0.93594   0.00000  Uiso   1.00
C55    C     0.76967   0.65302   0.44290   0.00000  Uiso   1.00
C56    C     0.77794   0.62316   0.42120   0.00000  Uiso   1.00
C57    C     0.80640   0.60311   0.42210   0.00000  Uiso   1.00
H58    H     0.82701   0.60796   0.44212   0.00000  Uiso   1.00
O59    O     0.79100   0.66051   0.46578   0.00000  Uiso   1.00
O60    O     0.74252   0.66876   0.43594   0.00000  Uiso   1.00
C61    C     0.26967   0.15302   0.44290   0.00000  Uiso   1.00
C62    C     0.27794   0.12316   0.42120   0.00000  Uiso   1.00
C63    C     0.30640   0.10311   0.42210   0.00000  Uiso   1.00
H64    H     0.32701   0.10796   0.44212   0.00000  Uiso   1.00
O65    O     0.29100   0.16051   0.46578   0.00000  Uiso   1.00
O66    O     0.24252   0.16876   0.43594   0.00000  Uiso   1.00
C67    C     0.26967   0.65302   0.94290   0.00000  Uiso   1.00
C68    C     0.27794   0.62316   0.92120   0.00000  Uiso   1.00
C69    C     0.30640   0.60311   0.92210   0.00000  Uiso   1.00
H70    H     0.32701   0.60796   0.94212   0.00000  Uiso   1.00
O71    O     0.29100   0.66051   0.96578   0.00000  Uiso   1.00
O72    O     0.24252   0.66876   0.93594   0.00000  Uiso   1.00
C73    C     0.23033   0.84698   0.94290   0.00000  Uiso   1.00
C74    C     0.22206   0.87684   0.92120   0.00000  Uiso   1.00
C75    C     0.19360   0.89689   0.92210   0.00000  Uiso   1.00
H76    H     0.17299   0.89204   0.94212   0.00000  Uiso   1.00
O77    O     0.20900   0.83949   0.96578   0.00000  Uiso   1.00
O78    O     0.25748   0.83124   0.93594   0.00000  Uiso   1.00
C79    C     0.23033   0.34698   0.44290   0.00000  Uiso   1.00
C80    C     0.22206   0.37684   0.42120   0.00000  Uiso   1.00
C81    C     0.19360   0.39689   0.42210   0.00000  Uiso   1.00
H82    H     0.17299   0.39204   0.44212   0.00000  Uiso   1.00
O83    O     0.20900   0.33949   0.46578   0.00000  Uiso   1.00
O84    O     0.25748   0.33124   0.43594   0.00000  Uiso   1.00
C85    C     0.73033   0.84698   0.44290   0.00000  Uiso   1.00
C86    C     0.72206   0.87684   0.42120   0.00000  Uiso   1.00
C87    C     0.69360   0.89689   0.42210   0.00000  Uiso   1.00
H88    H     0.67299   0.89204   0.44212   0.00000  Uiso   1.00
O89    O     0.70900   0.83949   0.46578   0.00000  Uiso   1.00
O90    O     0.75748   0.83124   0.43594   0.00000  Uiso   1.00
C91    C     0.73033   0.34698   0.94290   0.00000  Uiso   1.00
C92    C     0.72206   0.37684   0.92120   0.00000  Uiso   1.00
C93    C     0.69360   0.39689   0.92210   0.00000  Uiso   1.00
H94    H     0.67299   0.39204   0.94212   0.00000  Uiso   1.00
O95    O     0.70900   0.33949   0.96578   0.00000  Uiso   1.00
O96    O     0.75748   0.33124   0.93594   0.00000  Uiso   1.00
C97    C     0.05710   0.23033   0.15302   0.00000  Uiso   1.00
C98    C     0.07880   0.22206   0.12316   0.00000  Uiso   1.00
C99    C     0.07790   0.19360   0.10311   0.00000  Uiso   1.00
H100   H     0.05788   0.17299   0.10796   0.00000  Uiso   1.00
O101   O     0.03422   0.20900   0.16051   0.00000  Uiso   1.00
O102   O     0.06406   0.25748   0.16876   0.00000  Uiso   1.00
C103   C     0.05710   0.73033   0.65302   0.00000  Uiso   1.00
C104   C     0.07880   0.72206   0.62316   0.00000  Uiso   1.00
C105   C     0.07790   0.69360   0.60311   0.00000  Uiso   1.00
H106   H     0.05788   0.67299   0.60796   0.00000  Uiso   1.00
O107   O     0.03422   0.70900   0.66051   0.00000  Uiso   1.00
O108   O     0.06406   0.75748   0.66876   0.00000  Uiso   1.00
C109   C     0.55710   0.23033   0.65302   0.00000  Uiso   1.00
C110   C     0.57880   0.22206   0.62316   0.00000  Uiso   1.00
C111   C     0.57790   0.19360   0.60311   0.00000  Uiso   1.00
H112   H     0.55788   0.17299   0.60796   0.00000  Uiso   1.00
O113   O     0.53422   0.20900   0.66051   0.00000  Uiso   1.00
O114   O     0.56406   0.25748   0.66876   0.00000  Uiso   1.00
C115   C     0.55710   0.73033   0.15302   0.00000  Uiso   1.00
C116   C     0.57880   0.72206   0.12316   0.00000  Uiso   1.00
C117   C     0.57790   0.69360   0.10311   0.00000  Uiso   1.00
H118   H     0.55788   0.67299   0.10796   0.00000  Uiso   1.00
O119   O     0.53422   0.70900   0.16051   0.00000  Uiso   1.00
O120   O     0.56406   0.75748   0.16876   0.00000  Uiso   1.00
C121   C     0.05710   0.76967   0.84698   0.00000  Uiso   1.00
C122   C     0.07880   0.77794   0.87684   0.00000  Uiso   1.00
C123   C     0.07790   0.80640   0.89689   0.00000  Uiso   1.00
H124   H     0.05788   0.82701   0.89204   0.00000  Uiso   1.00
O125   O     0.03422   0.79100   0.83949   0.00000  Uiso   1.00
O126   O     0.06406   0.74252   0.83124   0.00000  Uiso   1.00
C127   C     0.05710   0.26967   0.34698   0.00000  Uiso   1.00
C128   C     0.07880   0.27794   0.37684   0.00000  Uiso   1.00
C129   C     0.07790   0.30640   0.39689   0.00000  Uiso   1.00
H130   H     0.05788   0.32701   0.39204   0.00000  Uiso   1.00
O131   O     0.03422   0.29100   0.33949   0.00000  Uiso   1.00
O132   O     0.06406   0.24252   0.33124   0.00000  Uiso   1.00
C133   C     0.55710   0.76967   0.34698   0.00000  Uiso   1.00
C134   C     0.57880   0.77794   0.37684   0.00000  Uiso   1.00
C135   C     0.57790   0.80640   0.39689   0.00000  Uiso   1.00
H136   H     0.55788   0.82701   0.39204   0.00000  Uiso   1.00
O137   O     0.53422   0.79100   0.33949   0.00000  Uiso   1.00
O138   O     0.56406   0.74252   0.33124   0.00000  Uiso   1.00
C139   C     0.55710   0.26967   0.84698   0.00000  Uiso   1.00
C140   C     0.57880   0.27794   0.87684   0.00000  Uiso   1.00
C141   C     0.57790   0.30640   0.89689   0.00000  Uiso   1.00
H142   H     0.55788   0.32701   0.89204   0.00000  Uiso   1.00
O143   O     0.53422   0.29100   0.83949   0.00000  Uiso   1.00
O144   O     0.56406   0.24252   0.83124   0.00000  Uiso   1.00
C145   C     0.94290   0.76967   0.15302   0.00000  Uiso   1.00
C146   C     0.92120   0.77794   0.12316   0.00000  Uiso   1.00
C147   C     0.92210   0.80640   0.10311   0.00000  Uiso   1.00
H148   H     0.94212   0.82701   0.10796   0.00000  Uiso   1.00
O149   O     0.96578   0.79100   0.16051   0.00000  Uiso   1.00
O150   O     0.93594   0.74252   0.16876   0.00000  Uiso   1.00
C151   C     0.94290   0.26967   0.65302   0.00000  Uiso   1.00
C152   C     0.92120   0.27794   0.62316   0.00000  Uiso   1.00
C153   C     0.92210   0.30640   0.60311   0.00000  Uiso   1.00
H154   H     0.94212   0.32701   0.60796   0.00000  Uiso   1.00
O155   O     0.96578   0.29100   0.66051   0.00000  Uiso   1.00
O156   O     0.93594   0.24252   0.66876   0.00000  Uiso   1.00
C157   C     0.44290   0.76967   0.65302   0.00000  Uiso   1.00
C158   C     0.42120   0.77794   0.62316   0.00000  Uiso   1.00
C159   C     0.42210   0.80640   0.60311   0.00000  Uiso   1.00
H160   H     0.44212   0.82701   0.60796   0.00000  Uiso   1.00
O161   O     0.46578   0.79100   0.66051   0.00000  Uiso   1.00
O162   O     0.43594   0.74252   0.66876   0.00000  Uiso   1.00
C163   C     0.44290   0.26967   0.15302   0.00000  Uiso   1.00
C164   C     0.42120   0.27794   0.12316   0.00000  Uiso   1.00
C165   C     0.42210   0.30640   0.10311   0.00000  Uiso   1.00
H166   H     0.44212   0.32701   0.10796   0.00000  Uiso   1.00
O167   O     0.46578   0.29100   0.16051   0.00000  Uiso   1.00
O168   O     0.43594   0.24252   0.16876   0.00000  Uiso   1.00
C169   C     0.94290   0.23033   0.84698   0.00000  Uiso   1.00
C170   C     0.92120   0.22206   0.87684   0.00000  Uiso   1.00
C171   C     0.92210   0.19360   0.89689   0.00000  Uiso   1.00
H172   H     0.94212   0.17299   0.89204   0.00000  Uiso   1.00
O173   O     0.96578   0.20900   0.83949   0.00000  Uiso   1.00
O174   O     0.93594   0.25748   0.83124   0.00000  Uiso   1.00
C175   C     0.94290   0.73033   0.34698   0.00000  Uiso   1.00
C176   C     0.92120   0.72206   0.37684   0.00000  Uiso   1.00
C177   C     0.92210   0.69360   0.39689   0.00000  Uiso   1.00
H178   H     0.94212   0.67299   0.39204   0.00000  Uiso   1.00
O179   O     0.96578   0.70900   0.33949   0.00000  Uiso   1.00
O180   O     0.93594   0.75748   0.33124   0.00000  Uiso   1.00
C181   C     0.44290   0.23033   0.34698   0.00000  Uiso   1.00
C182   C     0.42120   0.22206   0.37684   0.00000  Uiso   1.00
C183   C     0.42210   0.19360   0.39689   0.00000  Uiso   1.00
H184   H     0.44212   0.17299   0.39204   0.00000  Uiso   1.00
O185   O     0.46578   0.20900   0.33949   0.00000  Uiso   1.00
O186   O     0.43594   0.25748   0.33124   0.00000  Uiso   1.00
C187   C     0.44290   0.73033   0.84698   0.00000  Uiso   1.00
C188   C     0.42120   0.72206   0.87684   0.00000  Uiso   1.00
C189   C     0.42210   0.69360   0.89689   0.00000  Uiso   1.00
H190   H     0.44212   0.67299   0.89204   0.00000  Uiso   1.00
O191   O     0.46578   0.70900   0.83949   0.00000  Uiso   1.00
O192   O     0.43594   0.75748   0.83124   0.00000  Uiso   1.00
C193   C     0.15302   0.05710   0.23033   0.00000  Uiso   1.00
C194   C     0.12316   0.07880   0.22206   0.00000  Uiso   1.00
C195   C     0.10311   0.07790   0.19360   0.00000  Uiso   1.00
H196   H     0.10796   0.05788   0.17299   0.00000  Uiso   1.00
O197   O     0.16051   0.03422   0.20900   0.00000  Uiso   1.00
O198   O     0.16876   0.06406   0.25748   0.00000  Uiso   1.00
C199   C     0.15302   0.55710   0.73033   0.00000  Uiso   1.00
C200   C     0.12316   0.57880   0.72206   0.00000  Uiso   1.00
C201   C     0.10311   0.57790   0.69360   0.00000  Uiso   1.00
H202   H     0.10796   0.55788   0.67299   0.00000  Uiso   1.00
O203   O     0.16051   0.53422   0.70900   0.00000  Uiso   1.00
O204   O     0.16876   0.56406   0.75748   0.00000  Uiso   1.00
C205   C     0.65302   0.05710   0.73033   0.00000  Uiso   1.00
C206   C     0.62316   0.07880   0.72206   0.00000  Uiso   1.00
C207   C     0.60311   0.07790   0.69360   0.00000  Uiso   1.00
H208   H     0.60796   0.05788   0.67299   0.00000  Uiso   1.00
O209   O     0.66051   0.03422   0.70900   0.00000  Uiso   1.00
O210   O     0.66876   0.06406   0.75748   0.00000  Uiso   1.00
C211   C     0.65302   0.55710   0.23033   0.00000  Uiso   1.00
C212   C     0.62316   0.57880   0.22206   0.00000  Uiso   1.00
C213   C     0.60311   0.57790   0.19360   0.00000  Uiso   1.00
H214   H     0.60796   0.55788   0.17299   0.00000  Uiso   1.00
O215   O     0.66051   0.53422   0.20900   0.00000  Uiso   1.00
O216   O     0.66876   0.56406   0.25748   0.00000  Uiso   1.00
C217   C     0.84698   0.05710   0.76967   0.00000  Uiso   1.00
C218   C     0.87684   0.07880   0.77794   0.00000  Uiso   1.00
C219   C     0.89689   0.07790   0.80640   0.00000  Uiso   1.00
H220   H     0.89204   0.05788   0.82701   0.00000  Uiso   1.00
O221   O     0.83949   0.03422   0.79100   0.00000  Uiso   1.00
O222   O     0.83124   0.06406   0.74252   0.00000  Uiso   1.00
C223   C     0.84698   0.55710   0.26967   0.00000  Uiso   1.00
C224   C     0.87684   0.57880   0.27794   0.00000  Uiso   1.00
C225   C     0.89689   0.57790   0.30640   0.00000  Uiso   1.00
H226   H     0.89204   0.55788   0.32701   0.00000  Uiso   1.00
O227   O     0.83949   0.53422   0.29100   0.00000  Uiso   1.00
O228   O     0.83124   0.56406   0.24252   0.00000  Uiso   1.00
C229   C     0.34698   0.05710   0.26967   0.00000  Uiso   1.00
C230   C     0.37684   0.07880   0.27794   0.00000  Uiso   1.00
C231   C     0.39689   0.07790   0.30640   0.00000  Uiso   1.00
H232   H     0.39204   0.05788   0.32701   0.00000  Uiso   1.00
O233   O     0.33949   0.03422   0.29100   0.00000  Uiso   1.00
O234   O     0.33124   0.06406   0.24252   0.00000  Uiso   1.00
C235   C     0.34698   0.55710   0.76967   0.00000  Uiso   1.00
C236   C     0.37684   0.57880   0.77794   0.00000  Uiso   1.00
C237   C     0.39689   0.57790   0.80640   0.00000  Uiso   1.00
H238   H     0.39204   0.55788   0.82701   0.00000  Uiso   1.00
O239   O     0.33949   0.53422   0.79100   0.00000  Uiso   1.00
O240   O     0.33124   0.56406   0.74252   0.00000  Uiso   1.00
C241   C     0.15302   0.94290   0.76967   0.00000  Uiso   1.00
C242   C     0.12316   0.92120   0.77794   0.00000  Uiso   1.00
C243   C     0.10311   0.92210   0.80640   0.00000  Uiso   1.00
H244   H     0.10796   0.94212   0.82701   0.00000  Uiso   1.00
O245   O     0.16051   0.96578   0.79100   0.00000  Uiso   1.00
O246   O     0.16876   0.93594   0.74252   0.00000  Uiso   1.00
C247   C     0.15302   0.44290   0.26967   0.00000  Uiso   1.00
C248   C     0.12316   0.42120   0.27794   0.00000  Uiso   1.00
C249   C     0.10311   0.42210   0.30640   0.00000  Uiso   1.00
H250   H     0.10796   0.44212   0.32701   0.00000  Uiso   1.00
O251   O     0.16051   0.46578   0.29100   0.00000  Uiso   1.00
O252   O     0.16876   0.43594   0.24252   0.00000  Uiso   1.00
C253   C     0.65302   0.94290   0.26967   0.00000  Uiso   1.00
C254   C     0.62316   0.92120   0.27794   0.00000  Uiso   1.00
C255   C     0.60311   0.92210   0.30640   0.00000  Uiso   1.00
H256   H     0.60796   0.94212   0.32701   0.00000  Uiso   1.00
O257   O     0.66051   0.96578   0.29100   0.00000  Uiso   1.00
O258   O     0.66876   0.93594   0.24252   0.00000  Uiso   1.00
C259   C     0.65302   0.44290   0.76967   0.00000  Uiso   1.00
C260   C     0.62316   0.42120   0.77794   0.00000  Uiso   1.00
C261   C     0.60311   0.42210   0.80640   0.00000  Uiso   1.00
H262   H     0.60796   0.44212   0.82701   0.00000  Uiso   1.00
O263   O     0.66051   0.46578   0.79100   0.00000  Uiso   1.00
O264   O     0.66876   0.43594   0.74252   0.00000  Uiso   1.00
C265   C     0.84698   0.94290   0.23033   0.00000  Uiso   1.00
C266   C     0.87684   0.92120   0.22206   0.00000  Uiso   1.00
C267   C     0.89689   0.92210   0.19360   0.00000  Uiso   1.00
H268   H     0.89204   0.94212   0.17299   0.00000  Uiso   1.00
O269   O     0.83949   0.96578   0.20900   0.00000  Uiso   1.00
O270   O     0.83124   0.93594   0.25748   0.00000  Uiso   1.00
C271   C     0.84698   0.44290   0.73033   0.00000  Uiso   1.00
C272   C     0.87684   0.42120   0.72206   0.00000  Uiso   1.00
C273   C     0.89689   0.42210   0.69360   0.00000  Uiso   1.00
H274   H     0.89204   0.44212   0.67299   0.00000  Uiso   1.00
O275   O     0.83949   0.46578   0.70900   0.00000  Uiso   1.00
O276   O     0.83124   0.43594   0.75748   0.00000  Uiso   1.00
C277   C     0.34698   0.94290   0.73033   0.00000  Uiso   1.00
C278   C     0.37684   0.92120   0.72206   0.00000  Uiso   1.00
C279   C     0.39689   0.92210   0.69360   0.00000  Uiso   1.00
H280   H     0.39204   0.94212   0.67299   0.00000  Uiso   1.00
O281   O     0.33949   0.96578   0.70900   0.00000  Uiso   1.00
O282   O     0.33124   0.93594   0.75748   0.00000  Uiso   1.00
C283   C     0.34698   0.44290   0.23033   0.00000  Uiso   1.00
C284   C     0.37684   0.42120   0.22206   0.00000  Uiso   1.00
C285   C     0.39689   0.42210   0.19360   0.00000  Uiso   1.00
H286   H     0.39204   0.44212   0.17299   0.00000  Uiso   1.00
O287   O     0.33949   0.46578   0.20900   0.00000  Uiso   1.00
O288   O     0.33124   0.43594   0.25748   0.00000  Uiso   1.00
C289   C     0.15302   0.23033   0.94290   0.00000  Uiso   1.00
C290   C     0.12316   0.22206   0.92120   0.00000  Uiso   1.00
C291   C     0.10311   0.19360   0.92210   0.00000  Uiso   1.00
H292   H     0.10796   0.17299   0.94212   0.00000  Uiso   1.00
O293   O     0.16051   0.20900   0.96578   0.00000  Uiso   1.00
O294   O     0.16876   0.25748   0.93594   0.00000  Uiso   1.00
C295   C     0.15302   0.73033   0.44290   0.00000  Uiso   1.00
C296   C     0.12316   0.72206   0.42120   0.00000  Uiso   1.00
C297   C     0.10311   0.69360   0.42210   0.00000  Uiso   1.00
H298   H     0.10796   0.67299   0.44212   0.00000  Uiso   1.00
O299   O     0.16051   0.70900   0.46578   0.00000  Uiso   1.00
O300   O     0.16876   0.75748   0.43594   0.00000  Uiso   1.00
C301   C     0.65302   0.23033   0.44290   0.00000  Uiso   1.00
C302   C     0.62316   0.22206   0.42120   0.00000  Uiso   1.00
C303   C     0.60311   0.19360   0.42210   0.00000  Uiso   1.00
H304   H     0.60796   0.17299   0.44212   0.00000  Uiso   1.00
O305   O     0.66051   0.20900   0.46578   0.00000  Uiso   1.00
O306   O     0.66876   0.25748   0.43594   0.00000  Uiso   1.00
C307   C     0.65302   0.73033   0.94290   0.00000  Uiso   1.00
C308   C     0.62316   0.72206   0.92120   0.00000  Uiso   1.00
C309   C     0.60311   0.69360   0.92210   0.00000  Uiso   1.00
H310   H     0.60796   0.67299   0.94212   0.00000  Uiso   1.00
O311   O     0.66051   0.70900   0.96578   0.00000  Uiso   1.00
O312   O     0.66876   0.75748   0.93594   0.00000  Uiso   1.00
C313   C     0.84698   0.76967   0.94290   0.00000  Uiso   1.00
C314   C     0.87684   0.77794   0.92120   0.00000  Uiso   1.00
C315   C     0.89689   0.80640   0.92210   0.00000  Uiso   1.00
H316   H     0.89204   0.82701   0.94212   0.00000  Uiso   1.00
O317   O     0.83949   0.79100   0.96578   0.00000  Uiso   1.00
O318   O     0.83124   0.74252   0.93594   0.00000  Uiso   1.00
C319   C     0.84698   0.26967   0.44290   0.00000  Uiso   1.00
C320   C     0.87684   0.27794   0.42120   0.00000  Uiso   1.00
C321   C     0.89689   0.30640   0.42210   0.00000  Uiso   1.00
H322   H     0.89204   0.32701   0.44212   0.00000  Uiso   1.00
O323   O     0.83949   0.29100   0.46578   0.00000  Uiso   1.00
O324   O     0.83124   0.24252   0.43594   0.00000  Uiso   1.00
C325   C     0.34698   0.76967   0.44290   0.00000  Uiso   1.00
C326   C     0.37684   0.77794   0.42120   0.00000  Uiso   1.00
C327   C     0.39689   0.80640   0.42210   0.00000  Uiso   1.00
H328   H     0.39204   0.82701   0.44212   0.00000  Uiso   1.00
O329   O     0.33949   0.79100   0.46578   0.00000  Uiso   1.00
O330   O     0.33124   0.74252   0.43594   0.00000  Uiso   1.00
C331   C     0.34698   0.26967   0.94290   0.00000  Uiso   1.00
C332   C     0.37684   0.27794   0.92120   0.00000  Uiso   1.00
C333   C     0.39689   0.30640   0.92210   0.00000  Uiso   1.00
H334   H     0.39204   0.32701   0.94212   0.00000  Uiso   1.00
O335   O     0.33949   0.29100   0.96578   0.00000  Uiso   1.00
O336   O     0.33124   0.24252   0.93594   0.00000  Uiso   1.00
C337   C     0.15302   0.76967   0.05710   0.00000  Uiso   1.00
C338   C     0.12316   0.77794   0.07880   0.00000  Uiso   1.00
C339   C     0.10311   0.80640   0.07790   0.00000  Uiso   1.00
H340   H     0.10796   0.82701   0.05788   0.00000  Uiso   1.00
O341   O     0.16051   0.79100   0.03422   0.00000  Uiso   1.00
O342   O     0.16876   0.74252   0.06406   0.00000  Uiso   1.00
C343   C     0.15302   0.26967   0.55710   0.00000  Uiso   1.00
C344   C     0.12316   0.27794   0.57880   0.00000  Uiso   1.00
C345   C     0.10311   0.30640   0.57790   0.00000  Uiso   1.00
H346   H     0.10796   0.32701   0.55788   0.00000  Uiso   1.00
O347   O     0.16051   0.29100   0.53422   0.00000  Uiso   1.00
O348   O     0.16876   0.24252   0.56406   0.00000  Uiso   1.00
C349   C     0.65302   0.76967   0.55710   0.00000  Uiso   1.00
C350   C     0.62316   0.77794   0.57880   0.00000  Uiso   1.00
C351   C     0.60311   0.80640   0.57790   0.00000  Uiso   1.00
H352   H     0.60796   0.82701   0.55788   0.00000  Uiso   1.00
O353   O     0.66051   0.79100   0.53422   0.00000  Uiso   1.00
O354   O     0.66876   0.74252   0.56406   0.00000  Uiso   1.00
C355   C     0.65302   0.26967   0.05710   0.00000  Uiso   1.00
C356   C     0.62316   0.27794   0.07880   0.00000  Uiso   1.00
C357   C     0.60311   0.30640   0.07790   0.00000  Uiso   1.00
H358   H     0.60796   0.32701   0.05788   0.00000  Uiso   1.00
O359   O     0.66051   0.29100   0.03422   0.00000  Uiso   1.00
O360   O     0.66876   0.24252   0.06406   0.00000  Uiso   1.00
C361   C     0.84698   0.23033   0.05710   0.00000  Uiso   1.00
C362   C     0.87684   0.22206   0.07880   0.00000  Uiso   1.00
C363   C     0.89689   0.19360   0.07790   0.00000  Uiso   1.00
H364   H     0.89204   0.17299   0.05788   0.00000  Uiso   1.00
O365   O     0.83949   0.20900   0.03422   0.00000  Uiso   1.00
O366   O     0.83124   0.25748   0.06406   0.00000  Uiso   1.00
C367   C     0.84698   0.73033   0.55710   0.00000  Uiso   1.00
C368   C     0.87684   0.72206   0.57880   0.00000  Uiso   1.00
C369   C     0.89689   0.69360   0.57790   0.00000  Uiso   1.00
H370   H     0.89204   0.67299   0.55788   0.00000  Uiso   1.00
O371   O     0.83949   0.70900   0.53422   0.00000  Uiso   1.00
O372   O     0.83124   0.75748   0.56406   0.00000  Uiso   1.00
C373   C     0.34698   0.23033   0.55710   0.00000  Uiso   1.00
C374   C     0.37684   0.22206   0.57880   0.00000  Uiso   1.00
C375   C     0.39689   0.19360   0.57790   0.00000  Uiso   1.00
H376   H     0.39204   0.17299   0.55788   0.00000  Uiso   1.00
O377   O     0.33949   0.20900   0.53422   0.00000  Uiso   1.00
O378   O     0.33124   0.25748   0.56406   0.00000  Uiso   1.00
C379   C     0.34698   0.73033   0.05710   0.00000  Uiso   1.00
C380   C     0.37684   0.72206   0.07880   0.00000  Uiso   1.00
C381   C     0.39689   0.69360   0.07790   0.00000  Uiso   1.00
H382   H     0.39204   0.67299   0.05788   0.00000  Uiso   1.00
O383   O     0.33949   0.70900   0.03422   0.00000  Uiso   1.00
O384   O     0.33124   0.75748   0.06406   0.00000  Uiso   1.00
C385   C     0.23033   0.05710   0.84698   0.00000  Uiso   1.00
C386   C     0.22206   0.07880   0.87684   0.00000  Uiso   1.00
C387   C     0.19360   0.07790   0.89689   0.00000  Uiso   1.00
H388   H     0.17299   0.05788   0.89204   0.00000  Uiso   1.00
O389   O     0.20900   0.03422   0.83949   0.00000  Uiso   1.00
O390   O     0.25748   0.06406   0.83124   0.00000  Uiso   1.00
C391   C     0.23033   0.55710   0.34698   0.00000  Uiso   1.00
C392   C     0.22206   0.57880   0.37684   0.00000  Uiso   1.00
C393   C     0.19360   0.57790   0.39689   0.00000  Uiso   1.00
H394   H     0.17299   0.55788   0.39204   0.00000  Uiso   1.00
O395   O     0.20900   0.53422   0.33949   0.00000  Uiso   1.00
O396   O     0.25748   0.56406   0.33124   0.00000  Uiso   1.00
C397   C     0.73033   0.05710   0.34698   0.00000  Uiso   1.00
C398   C     0.72206   0.07880   0.37684   0.00000  Uiso   1.00
C399   C     0.69360   0.07790   0.39689   0.00000  Uiso   1.00
H400   H     0.67299   0.05788   0.39204   0.00000  Uiso   1.00
O401   O     0.70900   0.03422   0.33949   0.00000  Uiso   1.00
O402   O     0.75748   0.06406   0.33124   0.00000  Uiso   1.00
C403   C     0.73033   0.55710   0.84698   0.00000  Uiso   1.00
C404   C     0.72206   0.57880   0.87684   0.00000  Uiso   1.00
C405   C     0.69360   0.57790   0.89689   0.00000  Uiso   1.00
H406   H     0.67299   0.55788   0.89204   0.00000  Uiso   1.00
O407   O     0.70900   0.53422   0.83949   0.00000  Uiso   1.00
O408   O     0.75748   0.56406   0.83124   0.00000  Uiso   1.00
C409   C     0.76967   0.05710   0.15302   0.00000  Uiso   1.00
C410   C     0.77794   0.07880   0.12316   0.00000  Uiso   1.00
C411   C     0.80640   0.07790   0.10311   0.00000  Uiso   1.00
H412   H     0.82701   0.05788   0.10796   0.00000  Uiso   1.00
O413   O     0.79100   0.03422   0.16051   0.00000  Uiso   1.00
O414   O     0.74252   0.06406   0.16876   0.00000  Uiso   1.00
C415   C     0.76967   0.55710   0.65302   0.00000  Uiso   1.00
C416   C     0.77794   0.57880   0.62316   0.00000  Uiso   1.00
C417   C     0.80640   0.57790   0.60311   0.00000  Uiso   1.00
H418   H     0.82701   0.55788   0.60796   0.00000  Uiso   1.00
O419   O     0.79100   0.53422   0.66051   0.00000  Uiso   1.00
O420   O     0.74252   0.56406   0.66876   0.00000  Uiso   1.00
C421   C     0.26967   0.05710   0.65302   0.00000  Uiso   1.00
C422   C     0.27794   0.07880   0.62316   0.00000  Uiso   1.00
C423   C     0.30640   0.07790   0.60311   0.00000  Uiso   1.00
H424   H     0.32701   0.05788   0.60796   0.00000  Uiso   1.00
O425   O     0.29100   0.03422   0.66051   0.00000  Uiso   1.00
O426   O     0.24252   0.06406   0.66876   0.00000  Uiso   1.00
C427   C     0.26967   0.55710   0.15302   0.00000  Uiso   1.00
C428   C     0.27794   0.57880   0.12316   0.00000  Uiso   1.00
C429   C     0.30640   0.57790   0.10311   0.00000  Uiso   1.00
H430   H     0.32701   0.55788   0.10796   0.00000  Uiso   1.00
O431   O     0.29100   0.53422   0.16051   0.00000  Uiso   1.00
O432   O     0.24252   0.56406   0.16876   0.00000  Uiso   1.00
C433   C     0.76967   0.94290   0.84698   0.00000  Uiso   1.00
C434   C     0.77794   0.92120   0.87684   0.00000  Uiso   1.00
C435   C     0.80640   0.92210   0.89689   0.00000  Uiso   1.00
H436   H     0.82701   0.94212   0.89204   0.00000  Uiso   1.00
O437   O     0.79100   0.96578   0.83949   0.00000  Uiso   1.00
O438   O     0.74252   0.93594   0.83124   0.00000  Uiso   1.00
C439   C     0.76967   0.44290   0.34698   0.00000  Uiso   1.00
C440   C     0.77794   0.42120   0.37684   0.00000  Uiso   1.00
C441   C     0.80640   0.42210   0.39689   0.00000  Uiso   1.00
H442   H     0.82701   0.44212   0.39204   0.00000  Uiso   1.00
O443   O     0.79100   0.46578   0.33949   0.00000  Uiso   1.00
O444   O     0.74252   0.43594   0.33124   0.00000  Uiso   1.00
C445   C     0.26967   0.94290   0.34698   0.00000  Uiso   1.00
C446   C     0.27794   0.92120   0.37684   0.00000  Uiso   1.00
C447   C     0.30640   0.92210   0.39689   0.00000  Uiso   1.00
H448   H     0.32701   0.94212   0.39204   0.00000  Uiso   1.00
O449   O     0.29100   0.96578   0.33949   0.00000  Uiso   1.00
O450   O     0.24252   0.93594   0.33124   0.00000  Uiso   1.00
C451   C     0.26967   0.44290   0.84698   0.00000  Uiso   1.00
C452   C     0.27794   0.42120   0.87684   0.00000  Uiso   1.00
C453   C     0.30640   0.42210   0.89689   0.00000  Uiso   1.00
H454   H     0.32701   0.44212   0.89204   0.00000  Uiso   1.00
O455   O     0.29100   0.46578   0.83949   0.00000  Uiso   1.00
O456   O     0.24252   0.43594   0.83124   0.00000  Uiso   1.00
C457   C     0.23033   0.94290   0.15302   0.00000  Uiso   1.00
C458   C     0.22206   0.92120   0.12316   0.00000  Uiso   1.00
C459   C     0.19360   0.92210   0.10311   0.00000  Uiso   1.00
H460   H     0.17299   0.94212   0.10796   0.00000  Uiso   1.00
O461   O     0.20900   0.96578   0.16051   0.00000  Uiso   1.00
O462   O     0.25748   0.93594   0.16876   0.00000  Uiso   1.00
C463   C     0.23033   0.44290   0.65302   0.00000  Uiso   1.00
C464   C     0.22206   0.42120   0.62316   0.00000  Uiso   1.00
C465   C     0.19360   0.42210   0.60311   0.00000  Uiso   1.00
H466   H     0.17299   0.44212   0.60796   0.00000  Uiso   1.00
O467   O     0.20900   0.46578   0.66051   0.00000  Uiso   1.00
O468   O     0.25748   0.43594   0.66876   0.00000  Uiso   1.00
C469   C     0.73033   0.94290   0.65302   0.00000  Uiso   1.00
C470   C     0.72206   0.92120   0.62316   0.00000  Uiso   1.00
C471   C     0.69360   0.92210   0.60311   0.00000  Uiso   1.00
H472   H     0.67299   0.94212   0.60796   0.00000  Uiso   1.00
O473   O     0.70900   0.96578   0.66051   0.00000  Uiso   1.00
O474   O     0.75748   0.93594   0.66876   0.00000  Uiso   1.00
C475   C     0.73033   0.44290   0.15302   0.00000  Uiso   1.00
C476   C     0.72206   0.42120   0.12316   0.00000  Uiso   1.00
C477   C     0.69360   0.42210   0.10311   0.00000  Uiso   1.00
H478   H     0.67299   0.44212   0.10796   0.00000  Uiso   1.00
O479   O     0.70900   0.46578   0.16051   0.00000  Uiso   1.00
O480   O     0.75748   0.43594   0.16876   0.00000  Uiso   1.00
C481   C     0.05710   0.15302   0.76967   0.00000  Uiso   1.00
C482   C     0.07880   0.12316   0.77794   0.00000  Uiso   1.00
C483   C     0.07790   0.10311   0.80640   0.00000  Uiso   1.00
H484   H     0.05788   0.10796   0.82701   0.00000  Uiso   1.00
O485   O     0.03422   0.16051   0.79100   0.00000  Uiso   1.00
O486   O     0.06406   0.16876   0.74252   0.00000  Uiso   1.00
C487   C     0.05710   0.65302   0.26967   0.00000  Uiso   1.00
C488   C     0.07880   0.62316   0.27794   0.00000  Uiso   1.00
C489   C     0.07790   0.60311   0.30640   0.00000  Uiso   1.00
H490   H     0.05788   0.60796   0.32701   0.00000  Uiso   1.00
O491   O     0.03422   0.66051   0.29100   0.00000  Uiso   1.00
O492   O     0.06406   0.66876   0.24252   0.00000  Uiso   1.00
C493   C     0.55710   0.15302   0.26967   0.00000  Uiso   1.00
C494   C     0.57880   0.12316   0.27794   0.00000  Uiso   1.00
C495   C     0.57790   0.10311   0.30640   0.00000  Uiso   1.00
H496   H     0.55788   0.10796   0.32701   0.00000  Uiso   1.00
O497   O     0.53422   0.16051   0.29100   0.00000  Uiso   1.00
O498   O     0.56406   0.16876   0.24252   0.00000  Uiso   1.00
C499   C     0.55710   0.65302   0.76967   0.00000  Uiso   1.00
C500   C     0.57880   0.62316   0.77794   0.00000  Uiso   1.00
C501   C     0.57790   0.60311   0.80640   0.00000  Uiso   1.00
H502   H     0.55788   0.60796   0.82701   0.00000  Uiso   1.00
O503   O     0.53422   0.66051   0.79100   0.00000  Uiso   1.00
O504   O     0.56406   0.66876   0.74252   0.00000  Uiso   1.00
C505   C     0.05710   0.84698   0.23033   0.00000  Uiso   1.00
C506   C     0.07880   0.87684   0.22206   0.00000  Uiso   1.00
C507   C     0.07790   0.89689   0.19360   0.00000  Uiso   1.00
H508   H     0.05788   0.89204   0.17299   0.00000  Uiso   1.00
O509   O     0.03422   0.83949   0.20900   0.00000  Uiso   1.00
O510   O     0.06406   0.83124   0.25748   0.00000  Uiso   1.00
C511   C     0.05710   0.34698   0.73033   0.00000  Uiso   1.00
C512   C     0.07880   0.37684   0.72206   0.00000  Uiso   1.00
C513   C     0.07790   0.39689   0.69360   0.00000  Uiso   1.00
H514   H     0.05788   0.39204   0.67299   0.00000  Uiso   1.00
O515   O     0.03422   0.33949   0.70900   0.00000  Uiso   1.00
O516   O     0.06406   0.33124   0.75748   0.00000  Uiso   1.00
C517   C     0.55710   0.84698   0.73033   0.00000  Uiso   1.00
C518   C     0.57880   0.87684   0.72206   0.00000  Uiso   1.00
C519   C     0.57790   0.89689   0.69360   0.00000  Uiso   1.00
H520   H     0.55788   0.89204   0.67299   0.00000  Uiso   1.00
O521   O     0.53422   0.83949   0.70900   0.00000  Uiso   1.00
O522   O     0.56406   0.83124   0.75748   0.00000  Uiso   1.00
C523   C     0.55710   0.34698   0.23033   0.00000  Uiso   1.00
C524   C     0.57880   0.37684   0.22206   0.00000  Uiso   1.00
C525   C     0.57790   0.39689   0.19360   0.00000  Uiso   1.00
H526   H     0.55788   0.39204   0.17299   0.00000  Uiso   1.00
O527   O     0.53422   0.33949   0.20900   0.00000  Uiso   1.00
O528   O     0.56406   0.33124   0.25748   0.00000  Uiso   1.00
C529   C     0.94290   0.15302   0.23033   0.00000  Uiso   1.00
C530   C     0.92120   0.12316   0.22206   0.00000  Uiso   1.00
C531   C     0.92210   0.10311   0.19360   0.00000  Uiso   1.00
H532   H     0.94212   0.10796   0.17299   0.00000  Uiso   1.00
O533   O     0.96578   0.16051   0.20900   0.00000  Uiso   1.00
O534   O     0.93594   0.16876   0.25748   0.00000  Uiso   1.00
C535   C     0.94290   0.65302   0.73033   0.00000  Uiso   1.00
C536   C     0.92120   0.62316   0.72206   0.00000  Uiso   1.00
C537   C     0.92210   0.60311   0.69360   0.00000  Uiso   1.00
H538   H     0.94212   0.60796   0.67299   0.00000  Uiso   1.00
O539   O     0.96578   0.66051   0.70900   0.00000  Uiso   1.00
O540   O     0.93594   0.66876   0.75748   0.00000  Uiso   1.00
C541   C     0.44290   0.15302   0.73033   0.00000  Uiso   1.00
C542   C     0.42120   0.12316   0.72206   0.00000  Uiso   1.00
C543   C     0.42210   0.10311   0.69360   0.00000  Uiso   1.00
H544   H     0.44212   0.10796   0.67299   0.00000  Uiso   1.00
O545   O     0.46578   0.16051   0.70900   0.00000  Uiso   1.00
O546   O     0.43594   0.16876   0.75748   0.00000  Uiso   1.00
C547   C     0.44290   0.65302   0.23033   0.00000  Uiso   1.00
C548   C     0.42120   0.62316   0.22206   0.00000  Uiso   1.00
C549   C     0.42210   0.60311   0.19360   0.00000  Uiso   1.00
H550   H     0.44212   0.60796   0.17299   0.00000  Uiso   1.00
O551   O     0.46578   0.66051   0.20900   0.00000  Uiso   1.00
O552   O     0.43594   0.66876   0.25748   0.00000  Uiso   1.00
C553   C     0.94290   0.84698   0.76967   0.00000  Uiso   1.00
C554   C     0.92120   0.87684   0.77794   0.00000  Uiso   1.00
C555   C     0.92210   0.89689   0.80640   0.00000  Uiso   1.00
H556   H     0.94212   0.89204   0.82701   0.00000  Uiso   1.00
O557   O     0.96578   0.83949   0.79100   0.00000  Uiso   1.00
O558   O     0.93594   0.83124   0.74252   0.00000  Uiso   1.00
C559   C     0.94290   0.34698   0.26967   0.00000  Uiso   1.00
C560   C     0.92120   0.37684   0.27794   0.00000  Uiso   1.00
C561   C     0.92210   0.39689   0.30640   0.00000  Uiso   1.00
H562   H     0.94212   0.39204   0.32701   0.00000  Uiso   1.00
O563   O     0.96578   0.33949   0.29100   0.00000  Uiso   1.00
O564   O     0.93594   0.33124   0.24252   0.00000  Uiso   1.00
C565   C     0.44290   0.84698   0.26967   0.00000  Uiso   1.00
C566   C     0.42120   0.87684   0.27794   0.00000  Uiso   1.00
C567   C     0.42210   0.89689   0.30640   0.00000  Uiso   1.00
H568   H     0.44212   0.89204   0.32701   0.00000  Uiso   1.00
O569   O     0.46578   0.83949   0.29100   0.00000  Uiso   1.00
O570   O     0.43594   0.83124   0.24252   0.00000  Uiso   1.00
C571   C     0.44290   0.34698   0.76967   0.00000  Uiso   1.00
C572   C     0.42120   0.37684   0.77794   0.00000  Uiso   1.00
C573   C     0.42210   0.39689   0.80640   0.00000  Uiso   1.00
H574   H     0.44212   0.39204   0.82701   0.00000  Uiso   1.00
O575   O     0.46578   0.33949   0.79100   0.00000  Uiso   1.00
O576   O     0.43594   0.33124   0.74252   0.00000  Uiso   1.00
C577   C     0.76967   0.84698   0.94290   0.00000  Uiso   1.00
C578   C     0.77794   0.87684   0.92120   0.00000  Uiso   1.00
C579   C     0.80640   0.89689   0.92210   0.00000  Uiso   1.00
H580   H     0.82879   0.89483   0.94064   0.00000  Uiso   1.00
O581   O     0.79100   0.83949   0.96578   0.00000  Uiso   1.00
O582   O     0.74252   0.83124   0.93594   0.00000  Uiso   1.00
C583   C     0.76967   0.34698   0.44290   0.00000  Uiso   1.00
C584   C     0.77794   0.37684   0.42120   0.00000  Uiso   1.00
C585   C     0.80640   0.39689   0.42210   0.00000  Uiso   1.00
H586   H     0.82879   0.39483   0.44064   0.00000  Uiso   1.00
O587   O     0.79100   0.33949   0.46578   0.00000  Uiso   1.00
O588   O     0.74252   0.33124   0.43594   0.00000  Uiso   1.00
C589   C     0.26967   0.84698   0.44290   0.00000  Uiso   1.00
C590   C     0.27794   0.87684   0.42120   0.00000  Uiso   1.00
C591   C     0.30640   0.89689   0.42210   0.00000  Uiso   1.00
H592   H     0.32879   0.89483   0.44064   0.00000  Uiso   1.00
O593   O     0.29100   0.83949   0.46578   0.00000  Uiso   1.00
O594   O     0.24252   0.83124   0.43594   0.00000  Uiso   1.00
C595   C     0.26967   0.34698   0.94290   0.00000  Uiso   1.00
C596   C     0.27794   0.37684   0.92120   0.00000  Uiso   1.00
C597   C     0.30640   0.39689   0.92210   0.00000  Uiso   1.00
H598   H     0.32879   0.39483   0.94064   0.00000  Uiso   1.00
O599   O     0.29100   0.33949   0.96578   0.00000  Uiso   1.00
O600   O     0.24252   0.33124   0.93594   0.00000  Uiso   1.00
C601   C     0.23033   0.15302   0.94290   0.00000  Uiso   1.00
C602   C     0.22206   0.12316   0.92120   0.00000  Uiso   1.00
C603   C     0.19360   0.10311   0.92210   0.00000  Uiso   1.00
H604   H     0.17121   0.10517   0.94064   0.00000  Uiso   1.00
O605   O     0.20900   0.16051   0.96578   0.00000  Uiso   1.00
O606   O     0.25748   0.16876   0.93594   0.00000  Uiso   1.00
C607   C     0.23033   0.65302   0.44290   0.00000  Uiso   1.00
C608   C     0.22206   0.62316   0.42120   0.00000  Uiso   1.00
C609   C     0.19360   0.60311   0.42210   0.00000  Uiso   1.00
H610   H     0.17121   0.60517   0.44064   0.00000  Uiso   1.00
O611   O     0.20900   0.66051   0.46578   0.00000  Uiso   1.00
O612   O     0.25748   0.66876   0.43594   0.00000  Uiso   1.00
C613   C     0.73033   0.15302   0.44290   0.00000  Uiso   1.00
C614   C     0.72206   0.12316   0.42120   0.00000  Uiso   1.00
C615   C     0.69360   0.10311   0.42210   0.00000  Uiso   1.00
H616   H     0.67121   0.10517   0.44064   0.00000  Uiso   1.00
O617   O     0.70900   0.16051   0.46578   0.00000  Uiso   1.00
O618   O     0.75748   0.16876   0.43594   0.00000  Uiso   1.00
C619   C     0.73033   0.65302   0.94290   0.00000  Uiso   1.00
C620   C     0.72206   0.62316   0.92120   0.00000  Uiso   1.00
C621   C     0.69360   0.60311   0.92210   0.00000  Uiso   1.00
H622   H     0.67121   0.60517   0.94064   0.00000  Uiso   1.00
O623   O     0.70900   0.66051   0.96578   0.00000  Uiso   1.00
O624   O     0.75748   0.66876   0.93594   0.00000  Uiso   1.00
C625   C     0.23033   0.84698   0.05710   0.00000  Uiso   1.00
C626   C     0.22206   0.87684   0.07880   0.00000  Uiso   1.00
C627   C     0.19360   0.89689   0.07790   0.00000  Uiso   1.00
H628   H     0.17121   0.89483   0.05936   0.00000  Uiso   1.00
O629   O     0.20900   0.83949   0.03422   0.00000  Uiso   1.00
O630   O     0.25748   0.83124   0.06406   0.00000  Uiso   1.00
C631   C     0.23033   0.34698   0.55710   0.00000  Uiso   1.00
C632   C     0.22206   0.37684   0.57880   0.00000  Uiso   1.00
C633   C     0.19360   0.39689   0.57790   0.00000  Uiso   1.00
H634   H     0.17121   0.39483   0.55936   0.00000  Uiso   1.00
O635   O     0.20900   0.33949   0.53422   0.00000  Uiso   1.00
O636   O     0.25748   0.33124   0.56406   0.00000  Uiso   1.00
C637   C     0.73033   0.84698   0.55710   0.00000  Uiso   1.00
C638   C     0.72206   0.87684   0.57880   0.00000  Uiso   1.00
C639   C     0.69360   0.89689   0.57790   0.00000  Uiso   1.00
H640   H     0.67121   0.89483   0.55936   0.00000  Uiso   1.00
O641   O     0.70900   0.83949   0.53422   0.00000  Uiso   1.00
O642   O     0.75748   0.83124   0.56406   0.00000  Uiso   1.00
C643   C     0.73033   0.34698   0.05710   0.00000  Uiso   1.00
C644   C     0.72206   0.37684   0.07880   0.00000  Uiso   1.00
C645   C     0.69360   0.39689   0.07790   0.00000  Uiso   1.00
H646   H     0.67121   0.39483   0.05936   0.00000  Uiso   1.00
O647   O     0.70900   0.33949   0.03422   0.00000  Uiso   1.00
O648   O     0.75748   0.33124   0.06406   0.00000  Uiso   1.00
C649   C     0.76967   0.15302   0.05710   0.00000  Uiso   1.00
C650   C     0.77794   0.12316   0.07880   0.00000  Uiso   1.00
C651   C     0.80640   0.10311   0.07790   0.00000  Uiso   1.00
H652   H     0.82879   0.10517   0.05936   0.00000  Uiso   1.00
O653   O     0.79100   0.16051   0.03422   0.00000  Uiso   1.00
O654   O     0.74252   0.16876   0.06406   0.00000  Uiso   1.00
C655   C     0.76967   0.65302   0.55710   0.00000  Uiso   1.00
C656   C     0.77794   0.62316   0.57880   0.00000  Uiso   1.00
C657   C     0.80640   0.60311   0.57790   0.00000  Uiso   1.00
H658   H     0.82879   0.60517   0.55936   0.00000  Uiso   1.00
O659   O     0.79100   0.66051   0.53422   0.00000  Uiso   1.00
O660   O     0.74252   0.66876   0.56406   0.00000  Uiso   1.00
C661   C     0.26967   0.15302   0.55710   0.00000  Uiso   1.00
C662   C     0.27794   0.12316   0.57880   0.00000  Uiso   1.00
C663   C     0.30640   0.10311   0.57790   0.00000  Uiso   1.00
H664   H     0.32879   0.10517   0.55936   0.00000  Uiso   1.00
O665   O     0.29100   0.16051   0.53422   0.00000  Uiso   1.00
O666   O     0.24252   0.16876   0.56406   0.00000  Uiso   1.00
C667   C     0.26967   0.65302   0.05710   0.00000  Uiso   1.00
C668   C     0.27794   0.62316   0.07880   0.00000  Uiso   1.00
C669   C     0.30640   0.60311   0.07790   0.00000  Uiso   1.00
H670   H     0.32879   0.60517   0.05936   0.00000  Uiso   1.00
O671   O     0.29100   0.66051   0.03422   0.00000  Uiso   1.00
O672   O     0.24252   0.66876   0.06406   0.00000  Uiso   1.00
C673   C     0.94290   0.76967   0.84698   0.00000  Uiso   1.00
C674   C     0.92120   0.77794   0.87684   0.00000  Uiso   1.00
C675   C     0.92210   0.80640   0.89689   0.00000  Uiso   1.00
H676   H     0.94064   0.82879   0.89483   0.00000  Uiso   1.00
O677   O     0.96578   0.79100   0.83949   0.00000  Uiso   1.00
O678   O     0.93594   0.74252   0.83124   0.00000  Uiso   1.00
C679   C     0.94290   0.26967   0.34698   0.00000  Uiso   1.00
C680   C     0.92120   0.27794   0.37684   0.00000  Uiso   1.00
C681   C     0.92210   0.30640   0.39689   0.00000  Uiso   1.00
H682   H     0.94064   0.32879   0.39483   0.00000  Uiso   1.00
O683   O     0.96578   0.29100   0.33949   0.00000  Uiso   1.00
O684   O     0.93594   0.24252   0.33124   0.00000  Uiso   1.00
C685   C     0.44290   0.76967   0.34698   0.00000  Uiso   1.00
C686   C     0.42120   0.77794   0.37684   0.00000  Uiso   1.00
C687   C     0.42210   0.80640   0.39689   0.00000  Uiso   1.00
H688   H     0.44064   0.82879   0.39483   0.00000  Uiso   1.00
O689   O     0.46578   0.79100   0.33949   0.00000  Uiso   1.00
O690   O     0.43594   0.74252   0.33124   0.00000  Uiso   1.00
C691   C     0.44290   0.26967   0.84698   0.00000  Uiso   1.00
C692   C     0.42120   0.27794   0.87684   0.00000  Uiso   1.00
C693   C     0.42210   0.30640   0.89689   0.00000  Uiso   1.00
H694   H     0.44064   0.32879   0.89483   0.00000  Uiso   1.00
O695   O     0.46578   0.29100   0.83949   0.00000  Uiso   1.00
O696   O     0.43594   0.24252   0.83124   0.00000  Uiso   1.00
C697   C     0.94290   0.23033   0.15302   0.00000  Uiso   1.00
C698   C     0.92120   0.22206   0.12316   0.00000  Uiso   1.00
C699   C     0.92210   0.19360   0.10311   0.00000  Uiso   1.00
H700   H     0.94064   0.17121   0.10517   0.00000  Uiso   1.00
O701   O     0.96578   0.20900   0.16051   0.00000  Uiso   1.00
O702   O     0.93594   0.25748   0.16876   0.00000  Uiso   1.00
C703   C     0.94290   0.73033   0.65302   0.00000  Uiso   1.00
C704   C     0.92120   0.72206   0.62316   0.00000  Uiso   1.00
C705   C     0.92210   0.69360   0.60311   0.00000  Uiso   1.00
H706   H     0.94064   0.67121   0.60517   0.00000  Uiso   1.00
O707   O     0.96578   0.70900   0.66051   0.00000  Uiso   1.00
O708   O     0.93594   0.75748   0.66876   0.00000  Uiso   1.00
C709   C     0.44290   0.23033   0.65302   0.00000  Uiso   1.00
C710   C     0.42120   0.22206   0.62316   0.00000  Uiso   1.00
C711   C     0.42210   0.19360   0.60311   0.00000  Uiso   1.00
H712   H     0.44064   0.17121   0.60517   0.00000  Uiso   1.00
O713   O     0.46578   0.20900   0.66051   0.00000  Uiso   1.00
O714   O     0.43594   0.25748   0.66876   0.00000  Uiso   1.00
C715   C     0.44290   0.73033   0.15302   0.00000  Uiso   1.00
C716   C     0.42120   0.72206   0.12316   0.00000  Uiso   1.00
C717   C     0.42210   0.69360   0.10311   0.00000  Uiso   1.00
H718   H     0.44064   0.67121   0.10517   0.00000  Uiso   1.00
O719   O     0.46578   0.70900   0.16051   0.00000  Uiso   1.00
O720   O     0.43594   0.75748   0.16876   0.00000  Uiso   1.00
C721   C     0.05710   0.23033   0.84698   0.00000  Uiso   1.00
C722   C     0.07880   0.22206   0.87684   0.00000  Uiso   1.00
C723   C     0.07790   0.19360   0.89689   0.00000  Uiso   1.00
H724   H     0.05936   0.17121   0.89483   0.00000  Uiso   1.00
O725   O     0.03422   0.20900   0.83949   0.00000  Uiso   1.00
O726   O     0.06406   0.25748   0.83124   0.00000  Uiso   1.00
C727   C     0.05710   0.73033   0.34698   0.00000  Uiso   1.00
C728   C     0.07880   0.72206   0.37684   0.00000  Uiso   1.00
C729   C     0.07790   0.69360   0.39689   0.00000  Uiso   1.00
H730   H     0.05936   0.67121   0.39483   0.00000  Uiso   1.00
O731   O     0.03422   0.70900   0.33949   0.00000  Uiso   1.00
O732   O     0.06406   0.75748   0.33124   0.00000  Uiso   1.00
C733   C     0.55710   0.23033   0.34698   0.00000  Uiso   1.00
C734   C     0.57880   0.22206   0.37684   0.00000  Uiso   1.00
C735   C     0.57790   0.19360   0.39689   0.00000  Uiso   1.00
H736   H     0.55936   0.17121   0.39483   0.00000  Uiso   1.00
O737   O     0.53422   0.20900   0.33949   0.00000  Uiso   1.00
O738   O     0.56406   0.25748   0.33124   0.00000  Uiso   1.00
C739   C     0.55710   0.73033   0.84698   0.00000  Uiso   1.00
C740   C     0.57880   0.72206   0.87684   0.00000  Uiso   1.00
C741   C     0.57790   0.69360   0.89689   0.00000  Uiso   1.00
H742   H     0.55936   0.67121   0.89483   0.00000  Uiso   1.00
O743   O     0.53422   0.70900   0.83949   0.00000  Uiso   1.00
O744   O     0.56406   0.75748   0.83124   0.00000  Uiso   1.00
C745   C     0.05710   0.76967   0.15302   0.00000  Uiso   1.00
C746   C     0.07880   0.77794   0.12316   0.00000  Uiso   1.00
C747   C     0.07790   0.80640   0.10311   0.00000  Uiso   1.00
H748   H     0.05936   0.82879   0.10517   0.00000  Uiso   1.00
O749   O     0.03422   0.79100   0.16051   0.00000  Uiso   1.00
O750   O     0.06406   0.74252   0.16876   0.00000  Uiso   1.00
C751   C     0.05710   0.26967   0.65302   0.00000  Uiso   1.00
C752   C     0.07880   0.27794   0.62316   0.00000  Uiso   1.00
C753   C     0.07790   0.30640   0.60311   0.00000  Uiso   1.00
H754   H     0.05936   0.32879   0.60517   0.00000  Uiso   1.00
O755   O     0.03422   0.29100   0.66051   0.00000  Uiso   1.00
O756   O     0.06406   0.24252   0.66876   0.00000  Uiso   1.00
C757   C     0.55710   0.76967   0.65302   0.00000  Uiso   1.00
C758   C     0.57880   0.77794   0.62316   0.00000  Uiso   1.00
C759   C     0.57790   0.80640   0.60311   0.00000  Uiso   1.00
H760   H     0.55936   0.82879   0.60517   0.00000  Uiso   1.00
O761   O     0.53422   0.79100   0.66051   0.00000  Uiso   1.00
O762   O     0.56406   0.74252   0.66876   0.00000  Uiso   1.00
C763   C     0.55710   0.26967   0.15302   0.00000  Uiso   1.00
C764   C     0.57880   0.27794   0.12316   0.00000  Uiso   1.00
C765   C     0.57790   0.30640   0.10311   0.00000  Uiso   1.00
H766   H     0.55936   0.32879   0.10517   0.00000  Uiso   1.00
O767   O     0.53422   0.29100   0.16051   0.00000  Uiso   1.00
O768   O     0.56406   0.24252   0.16876   0.00000  Uiso   1.00
C769   C     0.84698   0.94290   0.76967   0.00000  Uiso   1.00
C770   C     0.87684   0.92120   0.77794   0.00000  Uiso   1.00
C771   C     0.89689   0.92210   0.80640   0.00000  Uiso   1.00
H772   H     0.89483   0.94064   0.82879   0.00000  Uiso   1.00
O773   O     0.83949   0.96578   0.79100   0.00000  Uiso   1.00
O774   O     0.83124   0.93594   0.74252   0.00000  Uiso   1.00
C775   C     0.84698   0.44290   0.26967   0.00000  Uiso   1.00
C776   C     0.87684   0.42120   0.27794   0.00000  Uiso   1.00
C777   C     0.89689   0.42210   0.30640   0.00000  Uiso   1.00
H778   H     0.89483   0.44064   0.32879   0.00000  Uiso   1.00
O779   O     0.83949   0.46578   0.29100   0.00000  Uiso   1.00
O780   O     0.83124   0.43594   0.24252   0.00000  Uiso   1.00
C781   C     0.34698   0.94290   0.26967   0.00000  Uiso   1.00
C782   C     0.37684   0.92120   0.27794   0.00000  Uiso   1.00
C783   C     0.39689   0.92210   0.30640   0.00000  Uiso   1.00
H784   H     0.39483   0.94064   0.32879   0.00000  Uiso   1.00
O785   O     0.33949   0.96578   0.29100   0.00000  Uiso   1.00
O786   O     0.33124   0.93594   0.24252   0.00000  Uiso   1.00
C787   C     0.34698   0.44290   0.76967   0.00000  Uiso   1.00
C788   C     0.37684   0.42120   0.77794   0.00000  Uiso   1.00
C789   C     0.39689   0.42210   0.80640   0.00000  Uiso   1.00
H790   H     0.39483   0.44064   0.82879   0.00000  Uiso   1.00
O791   O     0.33949   0.46578   0.79100   0.00000  Uiso   1.00
O792   O     0.33124   0.43594   0.74252   0.00000  Uiso   1.00
C793   C     0.15302   0.94290   0.23033   0.00000  Uiso   1.00
C794   C     0.12316   0.92120   0.22206   0.00000  Uiso   1.00
C795   C     0.10311   0.92210   0.19360   0.00000  Uiso   1.00
H796   H     0.10517   0.94064   0.17121   0.00000  Uiso   1.00
O797   O     0.16051   0.96578   0.20900   0.00000  Uiso   1.00
O798   O     0.16876   0.93594   0.25748   0.00000  Uiso   1.00
C799   C     0.15302   0.44290   0.73033   0.00000  Uiso   1.00
C800   C     0.12316   0.42120   0.72206   0.00000  Uiso   1.00
C801   C     0.10311   0.42210   0.69360   0.00000  Uiso   1.00
H802   H     0.10517   0.44064   0.67121   0.00000  Uiso   1.00
O803   O     0.16051   0.46578   0.70900   0.00000  Uiso   1.00
O804   O     0.16876   0.43594   0.75748   0.00000  Uiso   1.00
C805   C     0.65302   0.94290   0.73033   0.00000  Uiso   1.00
C806   C     0.62316   0.92120   0.72206   0.00000  Uiso   1.00
C807   C     0.60311   0.92210   0.69360   0.00000  Uiso   1.00
H808   H     0.60517   0.94064   0.67121   0.00000  Uiso   1.00
O809   O     0.66051   0.96578   0.70900   0.00000  Uiso   1.00
O810   O     0.66876   0.93594   0.75748   0.00000  Uiso   1.00
C811   C     0.65302   0.44290   0.23033   0.00000  Uiso   1.00
C812   C     0.62316   0.42120   0.22206   0.00000  Uiso   1.00
C813   C     0.60311   0.42210   0.19360   0.00000  Uiso   1.00
H814   H     0.60517   0.44064   0.17121   0.00000  Uiso   1.00
O815   O     0.66051   0.46578   0.20900   0.00000  Uiso   1.00
O816   O     0.66876   0.43594   0.25748   0.00000  Uiso   1.00
C817   C     0.84698   0.05710   0.23033   0.00000  Uiso   1.00
C818   C     0.87684   0.07880   0.22206   0.00000  Uiso   1.00
C819   C     0.89689   0.07790   0.19360   0.00000  Uiso   1.00
H820   H     0.89483   0.05936   0.17121   0.00000  Uiso   1.00
O821   O     0.83949   0.03422   0.20900   0.00000  Uiso   1.00
O822   O     0.83124   0.06406   0.25748   0.00000  Uiso   1.00
C823   C     0.84698   0.55710   0.73033   0.00000  Uiso   1.00
C824   C     0.87684   0.57880   0.72206   0.00000  Uiso   1.00
C825   C     0.89689   0.57790   0.69360   0.00000  Uiso   1.00
H826   H     0.89483   0.55936   0.67121   0.00000  Uiso   1.00
O827   O     0.83949   0.53422   0.70900   0.00000  Uiso   1.00
O828   O     0.83124   0.56406   0.75748   0.00000  Uiso   1.00
C829   C     0.34698   0.05710   0.73033   0.00000  Uiso   1.00
C830   C     0.37684   0.07880   0.72206   0.00000  Uiso   1.00
C831   C     0.39689   0.07790   0.69360   0.00000  Uiso   1.00
H832   H     0.39483   0.05936   0.67121   0.00000  Uiso   1.00
O833   O     0.33949   0.03422   0.70900   0.00000  Uiso   1.00
O834   O     0.33124   0.06406   0.75748   0.00000  Uiso   1.00
C835   C     0.34698   0.55710   0.23033   0.00000  Uiso   1.00
C836   C     0.37684   0.57880   0.22206   0.00000  Uiso   1.00
C837   C     0.39689   0.57790   0.19360   0.00000  Uiso   1.00
H838   H     0.39483   0.55936   0.17121   0.00000  Uiso   1.00
O839   O     0.33949   0.53422   0.20900   0.00000  Uiso   1.00
O840   O     0.33124   0.56406   0.25748   0.00000  Uiso   1.00
C841   C     0.15302   0.05710   0.76967   0.00000  Uiso   1.00
C842   C     0.12316   0.07880   0.77794   0.00000  Uiso   1.00
C843   C     0.10311   0.07790   0.80640   0.00000  Uiso   1.00
H844   H     0.10517   0.05936   0.82879   0.00000  Uiso   1.00
O845   O     0.16051   0.03422   0.79100   0.00000  Uiso   1.00
O846   O     0.16876   0.06406   0.74252   0.00000  Uiso   1.00
C847   C     0.15302   0.55710   0.26967   0.00000  Uiso   1.00
C848   C     0.12316   0.57880   0.27794   0.00000  Uiso   1.00
C849   C     0.10311   0.57790   0.30640   0.00000  Uiso   1.00
H850   H     0.10517   0.55936   0.32879   0.00000  Uiso   1.00
O851   O     0.16051   0.53422   0.29100   0.00000  Uiso   1.00
O852   O     0.16876   0.56406   0.24252   0.00000  Uiso   1.00
C853   C     0.65302   0.05710   0.26967   0.00000  Uiso   1.00
C854   C     0.62316   0.07880   0.27794   0.00000  Uiso   1.00
C855   C     0.60311   0.07790   0.30640   0.00000  Uiso   1.00
H856   H     0.60517   0.05936   0.32879   0.00000  Uiso   1.00
O857   O     0.66051   0.03422   0.29100   0.00000  Uiso   1.00
O858   O     0.66876   0.06406   0.24252   0.00000  Uiso   1.00
C859   C     0.65302   0.55710   0.76967   0.00000  Uiso   1.00
C860   C     0.62316   0.57880   0.77794   0.00000  Uiso   1.00
C861   C     0.60311   0.57790   0.80640   0.00000  Uiso   1.00
H862   H     0.60517   0.55936   0.82879   0.00000  Uiso   1.00
O863   O     0.66051   0.53422   0.79100   0.00000  Uiso   1.00
O864   O     0.66876   0.56406   0.74252   0.00000  Uiso   1.00
C865   C     0.84698   0.76967   0.05710   0.00000  Uiso   1.00
C866   C     0.87684   0.77794   0.07880   0.00000  Uiso   1.00
C867   C     0.89689   0.80640   0.07790   0.00000  Uiso   1.00
H868   H     0.89483   0.82879   0.05936   0.00000  Uiso   1.00
O869   O     0.83949   0.79100   0.03422   0.00000  Uiso   1.00
O870   O     0.83124   0.74252   0.06406   0.00000  Uiso   1.00
C871   C     0.84698   0.26967   0.55710   0.00000  Uiso   1.00
C872   C     0.87684   0.27794   0.57880   0.00000  Uiso   1.00
C873   C     0.89689   0.30640   0.57790   0.00000  Uiso   1.00
H874   H     0.89483   0.32879   0.55936   0.00000  Uiso   1.00
O875   O     0.83949   0.29100   0.53422   0.00000  Uiso   1.00
O876   O     0.83124   0.24252   0.56406   0.00000  Uiso   1.00
C877   C     0.34698   0.76967   0.55710   0.00000  Uiso   1.00
C878   C     0.37684   0.77794   0.57880   0.00000  Uiso   1.00
C879   C     0.39689   0.80640   0.57790   0.00000  Uiso   1.00
H880   H     0.39483   0.82879   0.55936   0.00000  Uiso   1.00
O881   O     0.33949   0.79100   0.53422   0.00000  Uiso   1.00
O882   O     0.33124   0.74252   0.56406   0.00000  Uiso   1.00
C883   C     0.34698   0.26967   0.05710   0.00000  Uiso   1.00
C884   C     0.37684   0.27794   0.07880   0.00000  Uiso   1.00
C885   C     0.39689   0.30640   0.07790   0.00000  Uiso   1.00
H886   H     0.39483   0.32879   0.05936   0.00000  Uiso   1.00
O887   O     0.33949   0.29100   0.03422   0.00000  Uiso   1.00
O888   O     0.33124   0.24252   0.06406   0.00000  Uiso   1.00
C889   C     0.15302   0.23033   0.05710   0.00000  Uiso   1.00
C890   C     0.12316   0.22206   0.07880   0.00000  Uiso   1.00
C891   C     0.10311   0.19360   0.07790   0.00000  Uiso   1.00
H892   H     0.10517   0.17121   0.05936   0.00000  Uiso   1.00
O893   O     0.16051   0.20900   0.03422   0.00000  Uiso   1.00
O894   O     0.16876   0.25748   0.06406   0.00000  Uiso   1.00
C895   C     0.15302   0.73033   0.55710   0.00000  Uiso   1.00
C896   C     0.12316   0.72206   0.57880   0.00000  Uiso   1.00
C897   C     0.10311   0.69360   0.57790   0.00000  Uiso   1.00
H898   H     0.10517   0.67121   0.55936   0.00000  Uiso   1.00
O899   O     0.16051   0.70900   0.53422   0.00000  Uiso   1.00
O900   O     0.16876   0.75748   0.56406   0.00000  Uiso   1.00
C901   C     0.65302   0.23033   0.55710   0.00000  Uiso   1.00
C902   C     0.62316   0.22206   0.57880   0.00000  Uiso   1.00
C903   C     0.60311   0.19360   0.57790   0.00000  Uiso   1.00
H904   H     0.60517   0.17121   0.55936   0.00000  Uiso   1.00
O905   O     0.66051   0.20900   0.53422   0.00000  Uiso   1.00
O906   O     0.66876   0.25748   0.56406   0.00000  Uiso   1.00
C907   C     0.65302   0.73033   0.05710   0.00000  Uiso   1.00
C908   C     0.62316   0.72206   0.07880   0.00000  Uiso   1.00
C909   C     0.60311   0.69360   0.07790   0.00000  Uiso   1.00
H910   H     0.60517   0.67121   0.05936   0.00000  Uiso   1.00
O911   O     0.66051   0.70900   0.03422   0.00000  Uiso   1.00
O912   O     0.66876   0.75748   0.06406   0.00000  Uiso   1.00
C913   C     0.84698   0.23033   0.94290   0.00000  Uiso   1.00
C914   C     0.87684   0.22206   0.92120   0.00000  Uiso   1.00
C915   C     0.89689   0.19360   0.92210   0.00000  Uiso   1.00
H916   H     0.89483   0.17121   0.94064   0.00000  Uiso   1.00
O917   O     0.83949   0.20900   0.96578   0.00000  Uiso   1.00
O918   O     0.83124   0.25748   0.93594   0.00000  Uiso   1.00
C919   C     0.84698   0.73033   0.44290   0.00000  Uiso   1.00
C920   C     0.87684   0.72206   0.42120   0.00000  Uiso   1.00
C921   C     0.89689   0.69360   0.42210   0.00000  Uiso   1.00
H922   H     0.89483   0.67121   0.44064   0.00000  Uiso   1.00
O923   O     0.83949   0.70900   0.46578   0.00000  Uiso   1.00
O924   O     0.83124   0.75748   0.43594   0.00000  Uiso   1.00
C925   C     0.34698   0.23033   0.44290   0.00000  Uiso   1.00
C926   C     0.37684   0.22206   0.42120   0.00000  Uiso   1.00
C927   C     0.39689   0.19360   0.42210   0.00000  Uiso   1.00
H928   H     0.39483   0.17121   0.44064   0.00000  Uiso   1.00
O929   O     0.33949   0.20900   0.46578   0.00000  Uiso   1.00
O930   O     0.33124   0.25748   0.43594   0.00000  Uiso   1.00
C931   C     0.34698   0.73033   0.94290   0.00000  Uiso   1.00
C932   C     0.37684   0.72206   0.92120   0.00000  Uiso   1.00
C933   C     0.39689   0.69360   0.92210   0.00000  Uiso   1.00
H934   H     0.39483   0.67121   0.94064   0.00000  Uiso   1.00
O935   O     0.33949   0.70900   0.96578   0.00000  Uiso   1.00
O936   O     0.33124   0.75748   0.93594   0.00000  Uiso   1.00
C937   C     0.15302   0.76967   0.94290   0.00000  Uiso   1.00
C938   C     0.12316   0.77794   0.92120   0.00000  Uiso   1.00
C939   C     0.10311   0.80640   0.92210   0.00000  Uiso   1.00
H940   H     0.10517   0.82879   0.94064   0.00000  Uiso   1.00
O941   O     0.16051   0.79100   0.96578   0.00000  Uiso   1.00
O942   O     0.16876   0.74252   0.93594   0.00000  Uiso   1.00
C943   C     0.15302   0.26967   0.44290   0.00000  Uiso   1.00
C944   C     0.12316   0.27794   0.42120   0.00000  Uiso   1.00
C945   C     0.10311   0.30640   0.42210   0.00000  Uiso   1.00
H946   H     0.10517   0.32879   0.44064   0.00000  Uiso   1.00
O947   O     0.16051   0.29100   0.46578   0.00000  Uiso   1.00
O948   O     0.16876   0.24252   0.43594   0.00000  Uiso   1.00
C949   C     0.65302   0.76967   0.44290   0.00000  Uiso   1.00
C950   C     0.62316   0.77794   0.42120   0.00000  Uiso   1.00
C951   C     0.60311   0.80640   0.42210   0.00000  Uiso   1.00
H952   H     0.60517   0.82879   0.44064   0.00000  Uiso   1.00
O953   O     0.66051   0.79100   0.46578   0.00000  Uiso   1.00
O954   O     0.66876   0.74252   0.43594   0.00000  Uiso   1.00
C955   C     0.65302   0.26967   0.94290   0.00000  Uiso   1.00
C956   C     0.62316   0.27794   0.92120   0.00000  Uiso   1.00
C957   C     0.60311   0.30640   0.92210   0.00000  Uiso   1.00
H958   H     0.60517   0.32879   0.94064   0.00000  Uiso   1.00
O959   O     0.66051   0.29100   0.96578   0.00000  Uiso   1.00
O960   O     0.66876   0.24252   0.93594   0.00000  Uiso   1.00
C961   C     0.76967   0.94290   0.15302   0.00000  Uiso   1.00
C962   C     0.77794   0.92120   0.12316   0.00000  Uiso   1.00
C963   C     0.80640   0.92210   0.10311   0.00000  Uiso   1.00
H964   H     0.82879   0.94064   0.10517   0.00000  Uiso   1.00
O965   O     0.79100   0.96578   0.16051   0.00000  Uiso   1.00
O966   O     0.74252   0.93594   0.16876   0.00000  Uiso   1.00
C967   C     0.76967   0.44290   0.65302   0.00000  Uiso   1.00
C968   C     0.77794   0.42120   0.62316   0.00000  Uiso   1.00
C969   C     0.80640   0.42210   0.60311   0.00000  Uiso   1.00
H970   H     0.82879   0.44064   0.60517   0.00000  Uiso   1.00
O971   O     0.79100   0.46578   0.66051   0.00000  Uiso   1.00
O972   O     0.74252   0.43594   0.66876   0.00000  Uiso   1.00
C973   C     0.26967   0.94290   0.65302   0.00000  Uiso   1.00
C974   C     0.27794   0.92120   0.62316   0.00000  Uiso   1.00
C975   C     0.30640   0.92210   0.60311   0.00000  Uiso   1.00
H976   H     0.32879   0.94064   0.60517   0.00000  Uiso   1.00
O977   O     0.29100   0.96578   0.66051   0.00000  Uiso   1.00
O978   O     0.24252   0.93594   0.66876   0.00000  Uiso   1.00
C979   C     0.26967   0.44290   0.15302   0.00000  Uiso   1.00
C980   C     0.27794   0.42120   0.12316   0.00000  Uiso   1.00
C981   C     0.30640   0.42210   0.10311   0.00000  Uiso   1.00
H982   H     0.32879   0.44064   0.10517   0.00000  Uiso   1.00
O983   O     0.29100   0.46578   0.16051   0.00000  Uiso   1.00
O984   O     0.24252   0.43594   0.16876   0.00000  Uiso   1.00
C985   C     0.23033   0.94290   0.84698   0.00000  Uiso   1.00
C986   C     0.22206   0.92120   0.87684   0.00000  Uiso   1.00
C987   C     0.19360   0.92210   0.89689   0.00000  Uiso   1.00
H988   H     0.17121   0.94064   0.89483   0.00000  Uiso   1.00
O989   O     0.20900   0.96578   0.83949   0.00000  Uiso   1.00
O990   O     0.25748   0.93594   0.83124   0.00000  Uiso   1.00
C991   C     0.23033   0.44290   0.34698   0.00000  Uiso   1.00
C992   C     0.22206   0.42120   0.37684   0.00000  Uiso   1.00
C993   C     0.19360   0.42210   0.39689   0.00000  Uiso   1.00
H994   H     0.17121   0.44064   0.39483   0.00000  Uiso   1.00
O995   O     0.20900   0.46578   0.33949   0.00000  Uiso   1.00
O996   O     0.25748   0.43594   0.33124   0.00000  Uiso   1.00
C997   C     0.73033   0.94290   0.34698   0.00000  Uiso   1.00
C998   C     0.72206   0.92120   0.37684   0.00000  Uiso   1.00
C999   C     0.69360   0.92210   0.39689   0.00000  Uiso   1.00
H1000  H     0.67121   0.94064   0.39483   0.00000  Uiso   1.00
O1001  O     0.70900   0.96578   0.33949   0.00000  Uiso   1.00
O1002  O     0.75748   0.93594   0.33124   0.00000  Uiso   1.00
C1003  C     0.73033   0.44290   0.84698   0.00000  Uiso   1.00
C1004  C     0.72206   0.42120   0.87684   0.00000  Uiso   1.00
C1005  C     0.69360   0.42210   0.89689   0.00000  Uiso   1.00
H1006  H     0.67121   0.44064   0.89483   0.00000  Uiso   1.00
O1007  O     0.70900   0.46578   0.83949   0.00000  Uiso   1.00
O1008  O     0.75748   0.43594   0.83124   0.00000  Uiso   1.00
C1009  C     0.23033   0.05710   0.15302   0.00000  Uiso   1.00
C1010  C     0.22206   0.07880   0.12316   0.00000  Uiso   1.00
C1011  C     0.19360   0.07790   0.10311   0.00000  Uiso   1.00
H1012  H     0.17121   0.05936   0.10517   0.00000  Uiso   1.00
O1013  O     0.20900   0.03422   0.16051   0.00000  Uiso   1.00
O1014  O     0.25748   0.06406   0.16876   0.00000  Uiso   1.00
C1015  C     0.23033   0.55710   0.65302   0.00000  Uiso   1.00
C1016  C     0.22206   0.57880   0.62316   0.00000  Uiso   1.00
C1017  C     0.19360   0.57790   0.60311   0.00000  Uiso   1.00
H1018  H     0.17121   0.55936   0.60517   0.00000  Uiso   1.00
O1019  O     0.20900   0.53422   0.66051   0.00000  Uiso   1.00
O1020  O     0.25748   0.56406   0.66876   0.00000  Uiso   1.00
C1021  C     0.73033   0.05710   0.65302   0.00000  Uiso   1.00
C1022  C     0.72206   0.07880   0.62316   0.00000  Uiso   1.00
C1023  C     0.69360   0.07790   0.60311   0.00000  Uiso   1.00
H1024  H     0.67121   0.05936   0.60517   0.00000  Uiso   1.00
O1025  O     0.70900   0.03422   0.66051   0.00000  Uiso   1.00
O1026  O     0.75748   0.06406   0.66876   0.00000  Uiso   1.00
C1027  C     0.73033   0.55710   0.15302   0.00000  Uiso   1.00
C1028  C     0.72206   0.57880   0.12316   0.00000  Uiso   1.00
C1029  C     0.69360   0.57790   0.10311   0.00000  Uiso   1.00
H1030  H     0.67121   0.55936   0.10517   0.00000  Uiso   1.00
O1031  O     0.70900   0.53422   0.16051   0.00000  Uiso   1.00
O1032  O     0.75748   0.56406   0.16876   0.00000  Uiso   1.00
C1033  C     0.76967   0.05710   0.84698   0.00000  Uiso   1.00
C1034  C     0.77794   0.07880   0.87684   0.00000  Uiso   1.00
C1035  C     0.80640   0.07790   0.89689   0.00000  Uiso   1.00
H1036  H     0.82879   0.05936   0.89483   0.00000  Uiso   1.00
O1037  O     0.79100   0.03422   0.83949   0.00000  Uiso   1.00
O1038  O     0.74252   0.06406   0.83124   0.00000  Uiso   1.00
C1039  C     0.76967   0.55710   0.34698   0.00000  Uiso   1.00
C1040  C     0.77794   0.57880   0.37684   0.00000  Uiso   1.00
C1041  C     0.80640   0.57790   0.39689   0.00000  Uiso   1.00
H1042  H     0.82879   0.55936   0.39483   0.00000  Uiso   1.00
O1043  O     0.79100   0.53422   0.33949   0.00000  Uiso   1.00
O1044  O     0.74252   0.56406   0.33124   0.00000  Uiso   1.00
C1045  C     0.26967   0.05710   0.34698   0.00000  Uiso   1.00
C1046  C     0.27794   0.07880   0.37684   0.00000  Uiso   1.00
C1047  C     0.30640   0.07790   0.39689   0.00000  Uiso   1.00
H1048  H     0.32879   0.05936   0.39483   0.00000  Uiso   1.00
O1049  O     0.29100   0.03422   0.33949   0.00000  Uiso   1.00
O1050  O     0.24252   0.06406   0.33124   0.00000  Uiso   1.00
C1051  C     0.26967   0.55710   0.84698   0.00000  Uiso   1.00
C1052  C     0.27794   0.57880   0.87684   0.00000  Uiso   1.00
C1053  C     0.30640   0.57790   0.89689   0.00000  Uiso   1.00
H1054  H     0.32879   0.55936   0.89483   0.00000  Uiso   1.00
O1055  O     0.29100   0.53422   0.83949   0.00000  Uiso   1.00
O1056  O     0.24252   0.56406   0.83124   0.00000  Uiso   1.00
C1057  C     0.94290   0.84698   0.23033   0.00000  Uiso   1.00
C1058  C     0.92120   0.87684   0.22206   0.00000  Uiso   1.00
C1059  C     0.92210   0.89689   0.19360   0.00000  Uiso   1.00
H1060  H     0.94064   0.89483   0.17121   0.00000  Uiso   1.00
O1061  O     0.96578   0.83949   0.20900   0.00000  Uiso   1.00
O1062  O     0.93594   0.83124   0.25748   0.00000  Uiso   1.00
C1063  C     0.94290   0.34698   0.73033   0.00000  Uiso   1.00
C1064  C     0.92120   0.37684   0.72206   0.00000  Uiso   1.00
C1065  C     0.92210   0.39689   0.69360   0.00000  Uiso   1.00
H1066  H     0.94064   0.39483   0.67121   0.00000  Uiso   1.00
O1067  O     0.96578   0.33949   0.70900   0.00000  Uiso   1.00
O1068  O     0.93594   0.33124   0.75748   0.00000  Uiso   1.00
C1069  C     0.44290   0.84698   0.73033   0.00000  Uiso   1.00
C1070  C     0.42120   0.87684   0.72206   0.00000  Uiso   1.00
C1071  C     0.42210   0.89689   0.69360   0.00000  Uiso   1.00
H1072  H     0.44064   0.89483   0.67121   0.00000  Uiso   1.00
O1073  O     0.46578   0.83949   0.70900   0.00000  Uiso   1.00
O1074  O     0.43594   0.83124   0.75748   0.00000  Uiso   1.00
C1075  C     0.44290   0.34698   0.23033   0.00000  Uiso   1.00
C1076  C     0.42120   0.37684   0.22206   0.00000  Uiso   1.00
C1077  C     0.42210   0.39689   0.19360   0.00000  Uiso   1.00
H1078  H     0.44064   0.39483   0.17121   0.00000  Uiso   1.00
O1079  O     0.46578   0.33949   0.20900   0.00000  Uiso   1.00
O1080  O     0.43594   0.33124   0.25748   0.00000  Uiso   1.00
C1081  C     0.94290   0.15302   0.76967   0.00000  Uiso   1.00
C1082  C     0.92120   0.12316   0.77794   0.00000  Uiso   1.00
C1083  C     0.92210   0.10311   0.80640   0.00000  Uiso   1.00
H1084  H     0.94064   0.10517   0.82879   0.00000  Uiso   1.00
O1085  O     0.96578   0.16051   0.79100   0.00000  Uiso   1.00
O1086  O     0.93594   0.16876   0.74252   0.00000  Uiso   1.00
C1087  C     0.94290   0.65302   0.26967   0.00000  Uiso   1.00
C1088  C     0.92120   0.62316   0.27794   0.00000  Uiso   1.00
C1089  C     0.92210   0.60311   0.30640   0.00000  Uiso   1.00
H1090  H     0.94064   0.60517   0.32879   0.00000  Uiso   1.00
O1091  O     0.96578   0.66051   0.29100   0.00000  Uiso   1.00
O1092  O     0.93594   0.66876   0.24252   0.00000  Uiso   1.00
C1093  C     0.44290   0.15302   0.26967   0.00000  Uiso   1.00
C1094  C     0.42120   0.12316   0.27794   0.00000  Uiso   1.00
C1095  C     0.42210   0.10311   0.30640   0.00000  Uiso   1.00
H1096  H     0.44064   0.10517   0.32879   0.00000  Uiso   1.00
O1097  O     0.46578   0.16051   0.29100   0.00000  Uiso   1.00
O1098  O     0.43594   0.16876   0.24252   0.00000  Uiso   1.00
C1099  C     0.44290   0.65302   0.76967   0.00000  Uiso   1.00
C1100  C     0.42120   0.62316   0.77794   0.00000  Uiso   1.00
C1101  C     0.42210   0.60311   0.80640   0.00000  Uiso   1.00
H1102  H     0.44064   0.60517   0.82879   0.00000  Uiso   1.00
O1103  O     0.46578   0.66051   0.79100   0.00000  Uiso   1.00
O1104  O     0.43594   0.66876   0.74252   0.00000  Uiso   1.00
C1105  C     0.05710   0.84698   0.76967   0.00000  Uiso   1.00
C1106  C     0.07880   0.87684   0.77794   0.00000  Uiso   1.00
C1107  C     0.07790   0.89689   0.80640   0.00000  Uiso   1.00
H1108  H     0.05936   0.89483   0.82879   0.00000  Uiso   1.00
O1109  O     0.03422   0.83949   0.79100   0.00000  Uiso   1.00
O1110  O     0.06406   0.83124   0.74252   0.00000  Uiso   1.00
C1111  C     0.05710   0.34698   0.26967   0.00000  Uiso   1.00
C1112  C     0.07880   0.37684   0.27794   0.00000  Uiso   1.00
C1113  C     0.07790   0.39689   0.30640   0.00000  Uiso   1.00
H1114  H     0.05936   0.39483   0.32879   0.00000  Uiso   1.00
O1115  O     0.03422   0.33949   0.29100   0.00000  Uiso   1.00
O1116  O     0.06406   0.33124   0.24252   0.00000  Uiso   1.00
C1117  C     0.55710   0.84698   0.26967   0.00000  Uiso   1.00
C1118  C     0.57880   0.87684   0.27794   0.00000  Uiso   1.00
C1119  C     0.57790   0.89689   0.30640   0.00000  Uiso   1.00
H1120  H     0.55936   0.89483   0.32879   0.00000  Uiso   1.00
O1121  O     0.53422   0.83949   0.29100   0.00000  Uiso   1.00
O1122  O     0.56406   0.83124   0.24252   0.00000  Uiso   1.00
C1123  C     0.55710   0.34698   0.76967   0.00000  Uiso   1.00
C1124  C     0.57880   0.37684   0.77794   0.00000  Uiso   1.00
C1125  C     0.57790   0.39689   0.80640   0.00000  Uiso   1.00
H1126  H     0.55936   0.39483   0.82879   0.00000  Uiso   1.00
O1127  O     0.53422   0.33949   0.79100   0.00000  Uiso   1.00
O1128  O     0.56406   0.33124   0.74252   0.00000  Uiso   1.00
C1129  C     0.05710   0.15302   0.23033   0.00000  Uiso   1.00
C1130  C     0.07880   0.12316   0.22206   0.00000  Uiso   1.00
C1131  C     0.07790   0.10311   0.19360   0.00000  Uiso   1.00
H1132  H     0.05936   0.10517   0.17121   0.00000  Uiso   1.00
O1133  O     0.03422   0.16051   0.20900   0.00000  Uiso   1.00
O1134  O     0.06406   0.16876   0.25748   0.00000  Uiso   1.00
C1135  C     0.05710   0.65302   0.73033   0.00000  Uiso   1.00
C1136  C     0.07880   0.62316   0.72206   0.00000  Uiso   1.00
C1137  C     0.07790   0.60311   0.69360   0.00000  Uiso   1.00
H1138  H     0.05936   0.60517   0.67121   0.00000  Uiso   1.00
O1139  O     0.03422   0.66051   0.70900   0.00000  Uiso   1.00
O1140  O     0.06406   0.66876   0.75748   0.00000  Uiso   1.00
C1141  C     0.55710   0.15302   0.73033   0.00000  Uiso   1.00
C1142  C     0.57880   0.12316   0.72206   0.00000  Uiso   1.00
C1143  C     0.57790   0.10311   0.69360   0.00000  Uiso   1.00
H1144  H     0.55936   0.10517   0.67121   0.00000  Uiso   1.00
O1145  O     0.53422   0.16051   0.70900   0.00000  Uiso   1.00
O1146  O     0.56406   0.16876   0.75748   0.00000  Uiso   1.00
C1147  C     0.55710   0.65302   0.23033   0.00000  Uiso   1.00
C1148  C     0.57880   0.62316   0.22206   0.00000  Uiso   1.00
C1149  C     0.57790   0.60311   0.19360   0.00000  Uiso   1.00
H1150  H     0.55936   0.60517   0.17121   0.00000  Uiso   1.00
O1151  O     0.53422   0.66051   0.20900   0.00000  Uiso   1.00
O1152  O     0.56406   0.66876   0.25748   0.00000  Uiso   1.00
Zr1153 Zr    0.21814   0.28186   0.04525   0.00000  Uiso   1.00
O1154  O     0.22250   0.27750   0.10070   0.00000  Uiso   1.00
O1155  O     0.17903   0.32097   0.04340   0.00000  Uiso   1.00
Zr1156 Zr    0.21814   0.78186   0.54525   0.00000  Uiso   1.00
O1157  O     0.22250   0.77750   0.60070   0.00000  Uiso   1.00
O1158  O     0.17903   0.82097   0.54340   0.00000  Uiso   1.00
Zr1159 Zr    0.78186   0.71814   0.04525   0.00000  Uiso   1.00
O1160  O     0.77750   0.72250   0.10070   0.00000  Uiso   1.00
O1161  O     0.82097   0.67903   0.04340   0.00000  Uiso   1.00
Zr1162 Zr    0.78186   0.21814   0.54525   0.00000  Uiso   1.00
O1163  O     0.77750   0.22250   0.60070   0.00000  Uiso   1.00
O1164  O     0.82097   0.17903   0.54340   0.00000  Uiso   1.00
Zr1165 Zr    0.28186   0.21814   0.04525   0.00000  Uiso   1.00
O1166  O     0.27750   0.22250   0.10070   0.00000  Uiso   1.00
O1167  O     0.32097   0.17903   0.04340   0.00000  Uiso   1.00
Zr1168 Zr    0.78186   0.28186   0.95475   0.00000  Uiso   1.00
O1169  O     0.77750   0.27750   0.89930   0.00000  Uiso   1.00
O1170  O     0.82097   0.32097   0.95660   0.00000  Uiso   1.00
Zr1171 Zr    0.78186   0.78186   0.45475   0.00000  Uiso   1.00
O1172  O     0.77750   0.77750   0.39930   0.00000  Uiso   1.00
O1173  O     0.82097   0.82097   0.45660   0.00000  Uiso   1.00
Zr1174 Zr    0.28186   0.28186   0.45475   0.00000  Uiso   1.00
O1175  O     0.27750   0.27750   0.39930   0.00000  Uiso   1.00
O1176  O     0.32097   0.32097   0.45660   0.00000  Uiso   1.00
Zr1177 Zr    0.21814   0.71814   0.95475   0.00000  Uiso   1.00
O1178  O     0.22250   0.72250   0.89930   0.00000  Uiso   1.00
O1179  O     0.17903   0.67903   0.95660   0.00000  Uiso   1.00
Zr1180 Zr    0.21814   0.21814   0.45475   0.00000  Uiso   1.00
O1181  O     0.22250   0.22250   0.39930   0.00000  Uiso   1.00
O1182  O     0.17903   0.17903   0.45660   0.00000  Uiso   1.00
Zr1183 Zr    0.04525   0.21814   0.28186   0.00000  Uiso   1.00
O1184  O     0.10070   0.22250   0.27750   0.00000  Uiso   1.00
O1185  O     0.04340   0.17903   0.32097   0.00000  Uiso   1.00
Zr1186 Zr    0.54525   0.21814   0.78186   0.00000  Uiso   1.00
O1187  O     0.60070   0.22250   0.77750   0.00000  Uiso   1.00
O1188  O     0.54340   0.17903   0.82097   0.00000  Uiso   1.00
Zr1189 Zr    0.04525   0.78186   0.71814   0.00000  Uiso   1.00
O1190  O     0.10070   0.77750   0.72250   0.00000  Uiso   1.00
O1191  O     0.04340   0.82097   0.67903   0.00000  Uiso   1.00
Zr1192 Zr    0.04525   0.28186   0.21814   0.00000  Uiso   1.00
O1193  O     0.10070   0.27750   0.22250   0.00000  Uiso   1.00
O1194  O     0.04340   0.32097   0.17903   0.00000  Uiso   1.00
Zr1195 Zr    0.54525   0.78186   0.21814   0.00000  Uiso   1.00
O1196  O     0.60070   0.77750   0.22250   0.00000  Uiso   1.00
O1197  O     0.54340   0.82097   0.17903   0.00000  Uiso   1.00
Zr1198 Zr    0.95475   0.78186   0.28186   0.00000  Uiso   1.00
O1199  O     0.89930   0.77750   0.27750   0.00000  Uiso   1.00
O1200  O     0.95660   0.82097   0.32097   0.00000  Uiso   1.00
Zr1201 Zr    0.45475   0.78186   0.78186   0.00000  Uiso   1.00
O1202  O     0.39930   0.77750   0.77750   0.00000  Uiso   1.00
O1203  O     0.45660   0.82097   0.82097   0.00000  Uiso   1.00
Zr1204 Zr    0.45475   0.28186   0.28186   0.00000  Uiso   1.00
O1205  O     0.39930   0.27750   0.27750   0.00000  Uiso   1.00
O1206  O     0.45660   0.32097   0.32097   0.00000  Uiso   1.00
Zr1207 Zr    0.95475   0.21814   0.71814   0.00000  Uiso   1.00
O1208  O     0.89930   0.22250   0.72250   0.00000  Uiso   1.00
O1209  O     0.95660   0.17903   0.67903   0.00000  Uiso   1.00
Zr1210 Zr    0.45475   0.21814   0.21814   0.00000  Uiso   1.00
O1211  O     0.39930   0.22250   0.22250   0.00000  Uiso   1.00
O1212  O     0.45660   0.17903   0.17903   0.00000  Uiso   1.00
Zr1213 Zr    0.28186   0.04525   0.21814   0.00000  Uiso   1.00
O1214  O     0.27750   0.10070   0.22250   0.00000  Uiso   1.00
O1215  O     0.32097   0.04340   0.17903   0.00000  Uiso   1.00
Zr1216 Zr    0.28186   0.54525   0.71814   0.00000  Uiso   1.00
O1217  O     0.27750   0.60070   0.72250   0.00000  Uiso   1.00
O1218  O     0.32097   0.54340   0.67903   0.00000  Uiso   1.00
Zr1219 Zr    0.71814   0.04525   0.78186   0.00000  Uiso   1.00
O1220  O     0.72250   0.10070   0.77750   0.00000  Uiso   1.00
O1221  O     0.67903   0.04340   0.82097   0.00000  Uiso   1.00
Zr1222 Zr    0.71814   0.54525   0.28186   0.00000  Uiso   1.00
O1223  O     0.72250   0.60070   0.27750   0.00000  Uiso   1.00
O1224  O     0.67903   0.54340   0.32097   0.00000  Uiso   1.00
Zr1225 Zr    0.21814   0.04525   0.28186   0.00000  Uiso   1.00
O1226  O     0.22250   0.10070   0.27750   0.00000  Uiso   1.00
O1227  O     0.17903   0.04340   0.32097   0.00000  Uiso   1.00
Zr1228 Zr    0.28186   0.95475   0.78186   0.00000  Uiso   1.00
O1229  O     0.27750   0.89930   0.77750   0.00000  Uiso   1.00
O1230  O     0.32097   0.95660   0.82097   0.00000  Uiso   1.00
Zr1231 Zr    0.28186   0.45475   0.28186   0.00000  Uiso   1.00
O1232  O     0.27750   0.39930   0.27750   0.00000  Uiso   1.00
O1233  O     0.32097   0.45660   0.32097   0.00000  Uiso   1.00
Zr1234 Zr    0.71814   0.95475   0.21814   0.00000  Uiso   1.00
O1235  O     0.72250   0.89930   0.22250   0.00000  Uiso   1.00
O1236  O     0.67903   0.95660   0.17903   0.00000  Uiso   1.00
Zr1237 Zr    0.71814   0.45475   0.71814   0.00000  Uiso   1.00
O1238  O     0.72250   0.39930   0.72250   0.00000  Uiso   1.00
O1239  O     0.67903   0.45660   0.67903   0.00000  Uiso   1.00
Zr1240 Zr    0.21814   0.45475   0.21814   0.00000  Uiso   1.00
O1241  O     0.22250   0.39930   0.22250   0.00000  Uiso   1.00
O1242  O     0.17903   0.45660   0.17903   0.00000  Uiso   1.00
Zr1243 Zr    0.28186   0.21814   0.95475   0.00000  Uiso   1.00
O1244  O     0.27750   0.22250   0.89930   0.00000  Uiso   1.00
O1245  O     0.32097   0.17903   0.95660   0.00000  Uiso   1.00
Zr1246 Zr    0.28186   0.71814   0.45475   0.00000  Uiso   1.00
O1247  O     0.27750   0.72250   0.39930   0.00000  Uiso   1.00
O1248  O     0.32097   0.67903   0.45660   0.00000  Uiso   1.00
Zr1249 Zr    0.71814   0.78186   0.95475   0.00000  Uiso   1.00
O1250  O     0.72250   0.77750   0.89930   0.00000  Uiso   1.00
O1251  O     0.67903   0.82097   0.95660   0.00000  Uiso   1.00
Zr1252 Zr    0.71814   0.28186   0.45475   0.00000  Uiso   1.00
O1253  O     0.72250   0.27750   0.39930   0.00000  Uiso   1.00
O1254  O     0.67903   0.32097   0.45660   0.00000  Uiso   1.00
Zr1255 Zr    0.21814   0.28186   0.95475   0.00000  Uiso   1.00
O1256  O     0.22250   0.27750   0.89930   0.00000  Uiso   1.00
O1257  O     0.17903   0.32097   0.95660   0.00000  Uiso   1.00
Zr1258 Zr    0.28186   0.78186   0.04525   0.00000  Uiso   1.00
O1259  O     0.27750   0.77750   0.10070   0.00000  Uiso   1.00
O1260  O     0.32097   0.82097   0.04340   0.00000  Uiso   1.00
Zr1261 Zr    0.28186   0.28186   0.54525   0.00000  Uiso   1.00
O1262  O     0.27750   0.27750   0.60070   0.00000  Uiso   1.00
O1263  O     0.32097   0.32097   0.54340   0.00000  Uiso   1.00
Zr1264 Zr    0.71814   0.21814   0.04525   0.00000  Uiso   1.00
O1265  O     0.72250   0.22250   0.10070   0.00000  Uiso   1.00
O1266  O     0.67903   0.17903   0.04340   0.00000  Uiso   1.00
Zr1267 Zr    0.71814   0.71814   0.54525   0.00000  Uiso   1.00
O1268  O     0.72250   0.72250   0.60070   0.00000  Uiso   1.00
O1269  O     0.67903   0.67903   0.54340   0.00000  Uiso   1.00
Zr1270 Zr    0.21814   0.21814   0.54525   0.00000  Uiso   1.00
O1271  O     0.22250   0.22250   0.60070   0.00000  Uiso   1.00
O1272  O     0.17903   0.17903   0.54340   0.00000  Uiso   1.00
Zr1273 Zr    0.21814   0.04525   0.71814   0.00000  Uiso   1.00
O1274  O     0.22250   0.10070   0.72250   0.00000  Uiso   1.00
O1275  O     0.17903   0.04340   0.67903   0.00000  Uiso   1.00
Zr1276 Zr    0.21814   0.54525   0.21814   0.00000  Uiso   1.00
O1277  O     0.22250   0.60070   0.22250   0.00000  Uiso   1.00
O1278  O     0.17903   0.54340   0.17903   0.00000  Uiso   1.00
Zr1279 Zr    0.78186   0.04525   0.28186   0.00000  Uiso   1.00
O1280  O     0.77750   0.10070   0.27750   0.00000  Uiso   1.00
O1281  O     0.82097   0.04340   0.32097   0.00000  Uiso   1.00
Zr1282 Zr    0.78186   0.54525   0.78186   0.00000  Uiso   1.00
O1283  O     0.77750   0.60070   0.77750   0.00000  Uiso   1.00
O1284  O     0.82097   0.54340   0.82097   0.00000  Uiso   1.00
Zr1285 Zr    0.28186   0.54525   0.28186   0.00000  Uiso   1.00
O1286  O     0.27750   0.60070   0.27750   0.00000  Uiso   1.00
O1287  O     0.32097   0.54340   0.32097   0.00000  Uiso   1.00
Zr1288 Zr    0.78186   0.95475   0.71814   0.00000  Uiso   1.00
O1289  O     0.77750   0.89930   0.72250   0.00000  Uiso   1.00
O1290  O     0.82097   0.95660   0.67903   0.00000  Uiso   1.00
Zr1291 Zr    0.78186   0.45475   0.21814   0.00000  Uiso   1.00
O1292  O     0.77750   0.39930   0.22250   0.00000  Uiso   1.00
O1293  O     0.82097   0.45660   0.17903   0.00000  Uiso   1.00
Zr1294 Zr    0.28186   0.95475   0.21814   0.00000  Uiso   1.00
O1295  O     0.27750   0.89930   0.22250   0.00000  Uiso   1.00
O1296  O     0.32097   0.95660   0.17903   0.00000  Uiso   1.00
Zr1297 Zr    0.21814   0.95475   0.28186   0.00000  Uiso   1.00
O1298  O     0.22250   0.89930   0.27750   0.00000  Uiso   1.00
O1299  O     0.17903   0.95660   0.32097   0.00000  Uiso   1.00
Zr1300 Zr    0.21814   0.45475   0.78186   0.00000  Uiso   1.00
O1301  O     0.22250   0.39930   0.77750   0.00000  Uiso   1.00
O1302  O     0.17903   0.45660   0.82097   0.00000  Uiso   1.00
Zr1303 Zr    0.04525   0.28186   0.78186   0.00000  Uiso   1.00
O1304  O     0.10070   0.27750   0.77750   0.00000  Uiso   1.00
O1305  O     0.04340   0.32097   0.82097   0.00000  Uiso   1.00
Zr1306 Zr    0.54525   0.28186   0.28186   0.00000  Uiso   1.00
O1307  O     0.60070   0.27750   0.27750   0.00000  Uiso   1.00
O1308  O     0.54340   0.32097   0.32097   0.00000  Uiso   1.00
Zr1309 Zr    0.04525   0.71814   0.21814   0.00000  Uiso   1.00
O1310  O     0.10070   0.72250   0.22250   0.00000  Uiso   1.00
O1311  O     0.04340   0.67903   0.17903   0.00000  Uiso   1.00
Zr1312 Zr    0.54525   0.71814   0.71814   0.00000  Uiso   1.00
O1313  O     0.60070   0.72250   0.72250   0.00000  Uiso   1.00
O1314  O     0.54340   0.67903   0.67903   0.00000  Uiso   1.00
Zr1315 Zr    0.54525   0.21814   0.21814   0.00000  Uiso   1.00
O1316  O     0.60070   0.22250   0.22250   0.00000  Uiso   1.00
O1317  O     0.54340   0.17903   0.17903   0.00000  Uiso   1.00
Zr1318 Zr    0.95475   0.28186   0.21814   0.00000  Uiso   1.00
O1319  O     0.89930   0.27750   0.22250   0.00000  Uiso   1.00
O1320  O     0.95660   0.32097   0.17903   0.00000  Uiso   1.00
Zr1321 Zr    0.45475   0.28186   0.71814   0.00000  Uiso   1.00
O1322  O     0.39930   0.27750   0.72250   0.00000  Uiso   1.00
O1323  O     0.45660   0.32097   0.67903   0.00000  Uiso   1.00
Zr1324 Zr    0.95475   0.71814   0.78186   0.00000  Uiso   1.00
O1325  O     0.89930   0.72250   0.77750   0.00000  Uiso   1.00
O1326  O     0.95660   0.67903   0.82097   0.00000  Uiso   1.00
Zr1327 Zr    0.95475   0.21814   0.28186   0.00000  Uiso   1.00
O1328  O     0.89930   0.22250   0.27750   0.00000  Uiso   1.00
O1329  O     0.95660   0.17903   0.32097   0.00000  Uiso   1.00
Zr1330 Zr    0.45475   0.71814   0.28186   0.00000  Uiso   1.00
O1331  O     0.39930   0.72250   0.27750   0.00000  Uiso   1.00
O1332  O     0.45660   0.67903   0.32097   0.00000  Uiso   1.00
Zr1333 Zr    0.78186   0.71814   0.95475   0.00000  Uiso   1.00
O1334  O     0.77750   0.72250   0.89930   0.00000  Uiso   1.00
O1335  O     0.82097   0.67903   0.95660   0.00000  Uiso   1.00
Zr1336 Zr    0.78186   0.21814   0.45475   0.00000  Uiso   1.00
O1337  O     0.77750   0.22250   0.39930   0.00000  Uiso   1.00
O1338  O     0.82097   0.17903   0.45660   0.00000  Uiso   1.00
Zr1339 Zr    0.21814   0.78186   0.45475   0.00000  Uiso   1.00
O1340  O     0.22250   0.77750   0.39930   0.00000  Uiso   1.00
O1341  O     0.17903   0.82097   0.45660   0.00000  Uiso   1.00
Zr1342 Zr    0.21814   0.71814   0.04525   0.00000  Uiso   1.00
O1343  O     0.22250   0.72250   0.10070   0.00000  Uiso   1.00
O1344  O     0.17903   0.67903   0.04340   0.00000  Uiso   1.00
Zr1345 Zr    0.78186   0.28186   0.04525   0.00000  Uiso   1.00
O1346  O     0.77750   0.27750   0.10070   0.00000  Uiso   1.00
O1347  O     0.82097   0.32097   0.04340   0.00000  Uiso   1.00
Zr1348 Zr    0.78186   0.78186   0.54525   0.00000  Uiso   1.00
O1349  O     0.77750   0.77750   0.60070   0.00000  Uiso   1.00
O1350  O     0.82097   0.82097   0.54340   0.00000  Uiso   1.00
Zr1351 Zr    0.95475   0.78186   0.71814   0.00000  Uiso   1.00
O1352  O     0.89930   0.77750   0.72250   0.00000  Uiso   1.00
O1353  O     0.95660   0.82097   0.67903   0.00000  Uiso   1.00
Zr1354 Zr    0.45475   0.78186   0.21814   0.00000  Uiso   1.00
O1355  O     0.39930   0.77750   0.22250   0.00000  Uiso   1.00
O1356  O     0.45660   0.82097   0.17903   0.00000  Uiso   1.00
Zr1357 Zr    0.45475   0.21814   0.78186   0.00000  Uiso   1.00
O1358  O     0.39930   0.22250   0.77750   0.00000  Uiso   1.00
O1359  O     0.45660   0.17903   0.82097   0.00000  Uiso   1.00
Zr1360 Zr    0.04525   0.21814   0.71814   0.00000  Uiso   1.00
O1361  O     0.10070   0.22250   0.72250   0.00000  Uiso   1.00
O1362  O     0.04340   0.17903   0.67903   0.00000  Uiso   1.00
Zr1363 Zr    0.04525   0.78186   0.28186   0.00000  Uiso   1.00
O1364  O     0.10070   0.77750   0.27750   0.00000  Uiso   1.00
O1365  O     0.04340   0.82097   0.32097   0.00000  Uiso   1.00
Zr1366 Zr    0.54525   0.78186   0.78186   0.00000  Uiso   1.00
O1367  O     0.60070   0.77750   0.77750   0.00000  Uiso   1.00
O1368  O     0.54340   0.82097   0.82097   0.00000  Uiso   1.00
Zr1369 Zr    0.71814   0.95475   0.78186   0.00000  Uiso   1.00
O1370  O     0.72250   0.89930   0.77750   0.00000  Uiso   1.00
O1371  O     0.67903   0.95660   0.82097   0.00000  Uiso   1.00
Zr1372 Zr    0.71814   0.45475   0.28186   0.00000  Uiso   1.00
O1373  O     0.72250   0.39930   0.27750   0.00000  Uiso   1.00
O1374  O     0.67903   0.45660   0.32097   0.00000  Uiso   1.00
Zr1375 Zr    0.28186   0.45475   0.71814   0.00000  Uiso   1.00
O1376  O     0.27750   0.39930   0.72250   0.00000  Uiso   1.00
O1377  O     0.32097   0.45660   0.67903   0.00000  Uiso   1.00
Zr1378 Zr    0.71814   0.04525   0.21814   0.00000  Uiso   1.00
O1379  O     0.72250   0.10070   0.22250   0.00000  Uiso   1.00
O1380  O     0.67903   0.04340   0.17903   0.00000  Uiso   1.00
Zr1381 Zr    0.71814   0.54525   0.71814   0.00000  Uiso   1.00
O1382  O     0.72250   0.60070   0.72250   0.00000  Uiso   1.00
O1383  O     0.67903   0.54340   0.67903   0.00000  Uiso   1.00
Zr1384 Zr    0.28186   0.04525   0.78186   0.00000  Uiso   1.00
O1385  O     0.27750   0.10070   0.77750   0.00000  Uiso   1.00
O1386  O     0.32097   0.04340   0.82097   0.00000  Uiso   1.00
Zr1387 Zr    0.71814   0.78186   0.04525   0.00000  Uiso   1.00
O1388  O     0.72250   0.77750   0.10070   0.00000  Uiso   1.00
O1389  O     0.67903   0.82097   0.04340   0.00000  Uiso   1.00
Zr1390 Zr    0.71814   0.28186   0.54525   0.00000  Uiso   1.00
O1391  O     0.72250   0.27750   0.60070   0.00000  Uiso   1.00
O1392  O     0.67903   0.32097   0.54340   0.00000  Uiso   1.00
Zr1393 Zr    0.28186   0.71814   0.54525   0.00000  Uiso   1.00
O1394  O     0.27750   0.72250   0.60070   0.00000  Uiso   1.00
O1395  O     0.32097   0.67903   0.54340   0.00000  Uiso   1.00
Zr1396 Zr    0.71814   0.21814   0.95475   0.00000  Uiso   1.00
O1397  O     0.72250   0.22250   0.89930   0.00000  Uiso   1.00
O1398  O     0.67903   0.17903   0.95660   0.00000  Uiso   1.00
Zr1399 Zr    0.71814   0.71814   0.45475   0.00000  Uiso   1.00
O1400  O     0.72250   0.72250   0.39930   0.00000  Uiso   1.00
O1401  O     0.67903   0.67903   0.45660   0.00000  Uiso   1.00
Zr1402 Zr    0.28186   0.78186   0.95475   0.00000  Uiso   1.00
O1403  O     0.27750   0.77750   0.89930   0.00000  Uiso   1.00
O1404  O     0.32097   0.82097   0.95660   0.00000  Uiso   1.00
Zr1405 Zr    0.78186   0.95475   0.28186   0.00000  Uiso   1.00
O1406  O     0.77750   0.89930   0.27750   0.00000  Uiso   1.00
O1407  O     0.82097   0.95660   0.32097   0.00000  Uiso   1.00
Zr1408 Zr    0.78186   0.45475   0.78186   0.00000  Uiso   1.00
O1409  O     0.77750   0.39930   0.77750   0.00000  Uiso   1.00
O1410  O     0.82097   0.45660   0.82097   0.00000  Uiso   1.00
Zr1411 Zr    0.21814   0.95475   0.71814   0.00000  Uiso   1.00
O1412  O     0.22250   0.89930   0.72250   0.00000  Uiso   1.00
O1413  O     0.17903   0.95660   0.67903   0.00000  Uiso   1.00
Zr1414 Zr    0.21814   0.54525   0.78186   0.00000  Uiso   1.00
O1415  O     0.22250   0.60070   0.77750   0.00000  Uiso   1.00
O1416  O     0.17903   0.54340   0.82097   0.00000  Uiso   1.00
Zr1417 Zr    0.78186   0.04525   0.71814   0.00000  Uiso   1.00
O1418  O     0.77750   0.10070   0.72250   0.00000  Uiso   1.00
O1419  O     0.82097   0.04340   0.67903   0.00000  Uiso   1.00
Zr1420 Zr    0.78186   0.54525   0.21814   0.00000  Uiso   1.00
O1421  O     0.77750   0.60070   0.22250   0.00000  Uiso   1.00
O1422  O     0.82097   0.54340   0.17903   0.00000  Uiso   1.00
Zr1423 Zr    0.95475   0.71814   0.21814   0.00000  Uiso   1.00
O1424  O     0.89930   0.72250   0.22250   0.00000  Uiso   1.00
O1425  O     0.95660   0.67903   0.17903   0.00000  Uiso   1.00
Zr1426 Zr    0.45475   0.71814   0.71814   0.00000  Uiso   1.00
O1427  O     0.39930   0.72250   0.72250   0.00000  Uiso   1.00
O1428  O     0.45660   0.67903   0.67903   0.00000  Uiso   1.00
Zr1429 Zr    0.95475   0.28186   0.78186   0.00000  Uiso   1.00
O1430  O     0.89930   0.27750   0.77750   0.00000  Uiso   1.00
O1431  O     0.95660   0.32097   0.82097   0.00000  Uiso   1.00
Zr1432 Zr    0.04525   0.71814   0.78186   0.00000  Uiso   1.00
O1433  O     0.10070   0.72250   0.77750   0.00000  Uiso   1.00
O1434  O     0.04340   0.67903   0.82097   0.00000  Uiso   1.00
Zr1435 Zr    0.54525   0.71814   0.28186   0.00000  Uiso   1.00
O1436  O     0.60070   0.72250   0.27750   0.00000  Uiso   1.00
O1437  O     0.54340   0.67903   0.32097   0.00000  Uiso   1.00
Zr1438 Zr    0.54525   0.28186   0.71814   0.00000  Uiso   1.00
O1439  O     0.60070   0.27750   0.72250   0.00000  Uiso   1.00
O1440  O     0.54340   0.32097   0.67903   0.00000  Uiso   1.00
Zr1441 Zr    0.20544   0.20544   0.00000   0.00000  Uiso   1.00
Zr1442 Zr    0.20544   0.70544   0.50000   0.00000  Uiso   1.00
Zr1443 Zr    0.70544   0.20544   0.50000   0.00000  Uiso   1.00
Zr1444 Zr    0.70544   0.70544   0.00000   0.00000  Uiso   1.00
Zr1445 Zr    0.79456   0.79456   0.00000   0.00000  Uiso   1.00
Zr1446 Zr    0.79456   0.29456   0.50000   0.00000  Uiso   1.00
Zr1447 Zr    0.29456   0.79456   0.50000   0.00000  Uiso   1.00
Zr1448 Zr    0.29456   0.29456   0.00000   0.00000  Uiso   1.00
Zr1449 Zr    0.79456   0.20544   0.00000   0.00000  Uiso   1.00
Zr1450 Zr    0.79456   0.70544   0.50000   0.00000  Uiso   1.00
Zr1451 Zr    0.29456   0.20544   0.50000   0.00000  Uiso   1.00
Zr1452 Zr    0.29456   0.70544   0.00000   0.00000  Uiso   1.00
Zr1453 Zr    0.20544   0.79456   0.00000   0.00000  Uiso   1.00
Zr1454 Zr    0.20544   0.29456   0.50000   0.00000  Uiso   1.00
Zr1455 Zr    0.70544   0.79456   0.50000   0.00000  Uiso   1.00
Zr1456 Zr    0.70544   0.29456   0.00000   0.00000  Uiso   1.00
Zr1457 Zr    0.00000   0.20544   0.20544   0.00000  Uiso   1.00
Zr1458 Zr    0.00000   0.70544   0.70544   0.00000  Uiso   1.00
Zr1459 Zr    0.50000   0.20544   0.70544   0.00000  Uiso   1.00
Zr1460 Zr    0.50000   0.70544   0.20544   0.00000  Uiso   1.00
Zr1461 Zr    0.00000   0.79456   0.79456   0.00000  Uiso   1.00
Zr1462 Zr    0.00000   0.29456   0.29456   0.00000  Uiso   1.00
Zr1463 Zr    0.50000   0.79456   0.29456   0.00000  Uiso   1.00
Zr1464 Zr    0.50000   0.29456   0.79456   0.00000  Uiso   1.00
Zr1465 Zr    0.00000   0.79456   0.20544   0.00000  Uiso   1.00
Zr1466 Zr    0.00000   0.29456   0.70544   0.00000  Uiso   1.00
Zr1467 Zr    0.50000   0.79456   0.70544   0.00000  Uiso   1.00
Zr1468 Zr    0.50000   0.29456   0.20544   0.00000  Uiso   1.00
Zr1469 Zr    0.00000   0.20544   0.79456   0.00000  Uiso   1.00
Zr1470 Zr    0.00000   0.70544   0.29456   0.00000  Uiso   1.00
Zr1471 Zr    0.50000   0.20544   0.29456   0.00000  Uiso   1.00
Zr1472 Zr    0.50000   0.70544   0.79456   0.00000  Uiso   1.00
Zr1473 Zr    0.20544   0.00000   0.20544   0.00000  Uiso   1.00
Zr1474 Zr    0.20544   0.50000   0.70544   0.00000  Uiso   1.00
Zr1475 Zr    0.70544   0.00000   0.70544   0.00000  Uiso   1.00
Zr1476 Zr    0.70544   0.50000   0.20544   0.00000  Uiso   1.00
Zr1477 Zr    0.79456   0.00000   0.79456   0.00000  Uiso   1.00
Zr1478 Zr    0.79456   0.50000   0.29456   0.00000  Uiso   1.00
Zr1479 Zr    0.29456   0.00000   0.29456   0.00000  Uiso   1.00
Zr1480 Zr    0.29456   0.50000   0.79456   0.00000  Uiso   1.00
Zr1481 Zr    0.20544   0.00000   0.79456   0.00000  Uiso   1.00
Zr1482 Zr    0.20544   0.50000   0.29456   0.00000  Uiso   1.00
Zr1483 Zr    0.70544   0.00000   0.29456   0.00000  Uiso   1.00
Zr1484 Zr    0.70544   0.50000   0.79456   0.00000  Uiso   1.00
Zr1485 Zr    0.79456   0.00000   0.20544   0.00000  Uiso   1.00
Zr1486 Zr    0.79456   0.50000   0.70544   0.00000  Uiso   1.00
Zr1487 Zr    0.29456   0.00000   0.70544   0.00000  Uiso   1.00
Zr1488 Zr    0.29456   0.50000   0.20544   0.00000  Uiso   1.00
S1489  S     0.24878   0.11132   0.11132   0.00000  Uiso   1.00
S1490  S     0.24878   0.61132   0.61132   0.00000  Uiso   1.00
S1491  S     0.74878   0.11132   0.61132   0.00000  Uiso   1.00
S1492  S     0.74878   0.61132   0.11132   0.00000  Uiso   1.00
S1493  S     0.75122   0.88868   0.11132   0.00000  Uiso   1.00
S1494  S     0.75122   0.38868   0.61132   0.00000  Uiso   1.00
S1495  S     0.25122   0.88868   0.61132   0.00000  Uiso   1.00
S1496  S     0.25122   0.38868   0.11132   0.00000  Uiso   1.00
S1497  S     0.75122   0.11132   0.88868   0.00000  Uiso   1.00
S1498  S     0.75122   0.61132   0.38868   0.00000  Uiso   1.00
S1499  S     0.25122   0.11132   0.38868   0.00000  Uiso   1.00
S1500  S     0.25122   0.61132   0.88868   0.00000  Uiso   1.00
S1501  S     0.24878   0.88868   0.88868   0.00000  Uiso   1.00
S1502  S     0.24878   0.38868   0.38868   0.00000  Uiso   1.00
S1503  S     0.74878   0.88868   0.38868   0.00000  Uiso   1.00
S1504  S     0.74878   0.38868   0.88868   0.00000  Uiso   1.00
S1505  S     0.11132   0.24878   0.11132   0.00000  Uiso   1.00
S1506  S     0.11132   0.74878   0.61132   0.00000  Uiso   1.00
S1507  S     0.61132   0.24878   0.61132   0.00000  Uiso   1.00
S1508  S     0.61132   0.74878   0.11132   0.00000  Uiso   1.00
S1509  S     0.11132   0.75122   0.88868   0.00000  Uiso   1.00
S1510  S     0.11132   0.25122   0.38868   0.00000  Uiso   1.00
S1511  S     0.61132   0.75122   0.38868   0.00000  Uiso   1.00
S1512  S     0.61132   0.25122   0.88868   0.00000  Uiso   1.00
S1513  S     0.88868   0.75122   0.11132   0.00000  Uiso   1.00
S1514  S     0.88868   0.25122   0.61132   0.00000  Uiso   1.00
S1515  S     0.38868   0.75122   0.61132   0.00000  Uiso   1.00
S1516  S     0.38868   0.25122   0.11132   0.00000  Uiso   1.00
S1517  S     0.88868   0.24878   0.88868   0.00000  Uiso   1.00
S1518  S     0.88868   0.74878   0.38868   0.00000  Uiso   1.00
S1519  S     0.38868   0.24878   0.38868   0.00000  Uiso   1.00
S1520  S     0.38868   0.74878   0.88868   0.00000  Uiso   1.00
S1521  S     0.11132   0.11132   0.24878   0.00000  Uiso   1.00
S1522  S     0.11132   0.61132   0.74878   0.00000  Uiso   1.00
S1523  S     0.61132   0.11132   0.74878   0.00000  Uiso   1.00
S1524  S     0.61132   0.61132   0.24878   0.00000  Uiso   1.00
S1525  S     0.88868   0.11132   0.75122   0.00000  Uiso   1.00
S1526  S     0.88868   0.61132   0.25122   0.00000  Uiso   1.00
S1527  S     0.38868   0.11132   0.25122   0.00000  Uiso   1.00
S1528  S     0.38868   0.61132   0.75122   0.00000  Uiso   1.00
S1529  S     0.11132   0.88868   0.75122   0.00000  Uiso   1.00
S1530  S     0.11132   0.38868   0.25122   0.00000  Uiso   1.00
S1531  S     0.61132   0.88868   0.25122   0.00000  Uiso   1.00
S1532  S     0.61132   0.38868   0.75122   0.00000  Uiso   1.00
S1533  S     0.88868   0.88868   0.24878   0.00000  Uiso   1.00
S1534  S     0.88868   0.38868   0.74878   0.00000  Uiso   1.00
S1535  S     0.38868   0.88868   0.74878   0.00000  Uiso   1.00
S1536  S     0.38868   0.38868   0.24878   0.00000  Uiso   1.00
S1537  S     0.11132   0.24878   0.88868   0.00000  Uiso   1.00
S1538  S     0.11132   0.74878   0.38868   0.00000  Uiso   1.00
S1539  S     0.61132   0.24878   0.38868   0.00000  Uiso   1.00
S1540  S     0.61132   0.74878   0.88868   0.00000  Uiso   1.00
S1541  S     0.88868   0.75122   0.88868   0.00000  Uiso   1.00
S1542  S     0.88868   0.25122   0.38868   0.00000  Uiso   1.00
S1543  S     0.38868   0.75122   0.38868   0.00000  Uiso   1.00
S1544  S     0.38868   0.25122   0.88868   0.00000  Uiso   1.00
S1545  S     0.11132   0.75122   0.11132   0.00000  Uiso   1.00
S1546  S     0.11132   0.25122   0.61132   0.00000  Uiso   1.00
S1547  S     0.61132   0.75122   0.61132   0.00000  Uiso   1.00
S1548  S     0.61132   0.25122   0.11132   0.00000  Uiso   1.00
S1549  S     0.88868   0.24878   0.11132   0.00000  Uiso   1.00
S1550  S     0.88868   0.74878   0.61132   0.00000  Uiso   1.00
S1551  S     0.38868   0.24878   0.61132   0.00000  Uiso   1.00
S1552  S     0.38868   0.74878   0.11132   0.00000  Uiso   1.00
S1553  S     0.24878   0.11132   0.88868   0.00000  Uiso   1.00
S1554  S     0.24878   0.61132   0.38868   0.00000  Uiso   1.00
S1555  S     0.74878   0.11132   0.38868   0.00000  Uiso   1.00
S1556  S     0.74878   0.61132   0.88868   0.00000  Uiso   1.00
S1557  S     0.75122   0.11132   0.11132   0.00000  Uiso   1.00
S1558  S     0.75122   0.61132   0.61132   0.00000  Uiso   1.00
S1559  S     0.25122   0.11132   0.61132   0.00000  Uiso   1.00
S1560  S     0.25122   0.61132   0.11132   0.00000  Uiso   1.00
S1561  S     0.75122   0.88868   0.88868   0.00000  Uiso   1.00
S1562  S     0.75122   0.38868   0.38868   0.00000  Uiso   1.00
S1563  S     0.25122   0.88868   0.38868   0.00000  Uiso   1.00
S1564  S     0.25122   0.38868   0.88868   0.00000  Uiso   1.00
S1565  S     0.24878   0.88868   0.11132   0.00000  Uiso   1.00
S1566  S     0.24878   0.38868   0.61132   0.00000  Uiso   1.00
S1567  S     0.74878   0.88868   0.61132   0.00000  Uiso   1.00
S1568  S     0.74878   0.38868   0.11132   0.00000  Uiso   1.00
S1569  S     0.11132   0.11132   0.75122   0.00000  Uiso   1.00
S1570  S     0.11132   0.61132   0.25122   0.00000  Uiso   1.00
S1571  S     0.61132   0.11132   0.25122   0.00000  Uiso   1.00
S1572  S     0.61132   0.61132   0.75122   0.00000  Uiso   1.00
S1573  S     0.11132   0.88868   0.24878   0.00000  Uiso   1.00
S1574  S     0.11132   0.38868   0.74878   0.00000  Uiso   1.00
S1575  S     0.61132   0.88868   0.74878   0.00000  Uiso   1.00
S1576  S     0.61132   0.38868   0.24878   0.00000  Uiso   1.00
S1577  S     0.88868   0.11132   0.24878   0.00000  Uiso   1.00
S1578  S     0.88868   0.61132   0.74878   0.00000  Uiso   1.00
S1579  S     0.38868   0.11132   0.74878   0.00000  Uiso   1.00
S1580  S     0.38868   0.61132   0.24878   0.00000  Uiso   1.00
S1581  S     0.88868   0.88868   0.75122   0.00000  Uiso   1.00
S1582  S     0.88868   0.38868   0.25122   0.00000  Uiso   1.00
S1583  S     0.38868   0.88868   0.25122   0.00000  Uiso   1.00
S1584  S     0.38868   0.38868   0.75122   0.00000  Uiso   1.00
O1585  O     0.22833   0.22833   0.04480   0.00000  Uiso   1.00
O1586  O     0.22833   0.72833   0.54480   0.00000  Uiso   1.00
O1587  O     0.72833   0.22833   0.54480   0.00000  Uiso   1.00
O1588  O     0.72833   0.72833   0.04480   0.00000  Uiso   1.00
O1589  O     0.77167   0.77167   0.04480   0.00000  Uiso   1.00
O1590  O     0.77167   0.27167   0.54480   0.00000  Uiso   1.00
O1591  O     0.27167   0.77167   0.54480   0.00000  Uiso   1.00
O1592  O     0.27167   0.27167   0.04480   0.00000  Uiso   1.00
O1593  O     0.77167   0.22833   0.95520   0.00000  Uiso   1.00
O1594  O     0.77167   0.72833   0.45520   0.00000  Uiso   1.00
O1595  O     0.27167   0.22833   0.45520   0.00000  Uiso   1.00
O1596  O     0.27167   0.72833   0.95520   0.00000  Uiso   1.00
O1597  O     0.22833   0.77167   0.95520   0.00000  Uiso   1.00
O1598  O     0.22833   0.27167   0.45520   0.00000  Uiso   1.00
O1599  O     0.72833   0.77167   0.45520   0.00000  Uiso   1.00
O1600  O     0.72833   0.27167   0.95520   0.00000  Uiso   1.00
O1601  O     0.04480   0.22833   0.22833   0.00000  Uiso   1.00
O1602  O     0.04480   0.72833   0.72833   0.00000  Uiso   1.00
O1603  O     0.54480   0.22833   0.72833   0.00000  Uiso   1.00
O1604  O     0.54480   0.72833   0.22833   0.00000  Uiso   1.00
O1605  O     0.04480   0.77167   0.77167   0.00000  Uiso   1.00
O1606  O     0.04480   0.27167   0.27167   0.00000  Uiso   1.00
O1607  O     0.54480   0.77167   0.27167   0.00000  Uiso   1.00
O1608  O     0.54480   0.27167   0.77167   0.00000  Uiso   1.00
O1609  O     0.95520   0.77167   0.22833   0.00000  Uiso   1.00
O1610  O     0.95520   0.27167   0.72833   0.00000  Uiso   1.00
O1611  O     0.45520   0.77167   0.72833   0.00000  Uiso   1.00
O1612  O     0.45520   0.27167   0.22833   0.00000  Uiso   1.00
O1613  O     0.95520   0.22833   0.77167   0.00000  Uiso   1.00
O1614  O     0.95520   0.72833   0.27167   0.00000  Uiso   1.00
O1615  O     0.45520   0.22833   0.27167   0.00000  Uiso   1.00
O1616  O     0.45520   0.72833   0.77167   0.00000  Uiso   1.00
O1617  O     0.22833   0.04480   0.22833   0.00000  Uiso   1.00
O1618  O     0.22833   0.54480   0.72833   0.00000  Uiso   1.00
O1619  O     0.72833   0.04480   0.72833   0.00000  Uiso   1.00
O1620  O     0.72833   0.54480   0.22833   0.00000  Uiso   1.00
O1621  O     0.77167   0.04480   0.77167   0.00000  Uiso   1.00
O1622  O     0.77167   0.54480   0.27167   0.00000  Uiso   1.00
O1623  O     0.27167   0.04480   0.27167   0.00000  Uiso   1.00
O1624  O     0.27167   0.54480   0.77167   0.00000  Uiso   1.00
O1625  O     0.22833   0.95520   0.77167   0.00000  Uiso   1.00
O1626  O     0.22833   0.45520   0.27167   0.00000  Uiso   1.00
O1627  O     0.72833   0.95520   0.27167   0.00000  Uiso   1.00
O1628  O     0.72833   0.45520   0.77167   0.00000  Uiso   1.00
O1629  O     0.77167   0.95520   0.22833   0.00000  Uiso   1.00
O1630  O     0.77167   0.45520   0.72833   0.00000  Uiso   1.00
O1631  O     0.27167   0.95520   0.72833   0.00000  Uiso   1.00
O1632  O     0.27167   0.45520   0.22833   0.00000  Uiso   1.00
O1633  O     0.22833   0.22833   0.95520   0.00000  Uiso   1.00
O1634  O     0.22833   0.72833   0.45520   0.00000  Uiso   1.00
O1635  O     0.72833   0.22833   0.45520   0.00000  Uiso   1.00
O1636  O     0.72833   0.72833   0.95520   0.00000  Uiso   1.00
O1637  O     0.77167   0.77167   0.95520   0.00000  Uiso   1.00
O1638  O     0.77167   0.27167   0.45520   0.00000  Uiso   1.00
O1639  O     0.27167   0.77167   0.45520   0.00000  Uiso   1.00
O1640  O     0.27167   0.27167   0.95520   0.00000  Uiso   1.00
O1641  O     0.22833   0.77167   0.04480   0.00000  Uiso   1.00
O1642  O     0.22833   0.27167   0.54480   0.00000  Uiso   1.00
O1643  O     0.72833   0.77167   0.54480   0.00000  Uiso   1.00
O1644  O     0.72833   0.27167   0.04480   0.00000  Uiso   1.00
O1645  O     0.77167   0.22833   0.04480   0.00000  Uiso   1.00
O1646  O     0.77167   0.72833   0.54480   0.00000  Uiso   1.00
O1647  O     0.27167   0.22833   0.54480   0.00000  Uiso   1.00
O1648  O     0.27167   0.72833   0.04480   0.00000  Uiso   1.00
O1649  O     0.22833   0.04480   0.77167   0.00000  Uiso   1.00
O1650  O     0.22833   0.54480   0.27167   0.00000  Uiso   1.00
O1651  O     0.72833   0.04480   0.27167   0.00000  Uiso   1.00
O1652  O     0.72833   0.54480   0.77167   0.00000  Uiso   1.00
O1653  O     0.77167   0.04480   0.22833   0.00000  Uiso   1.00
O1654  O     0.77167   0.54480   0.72833   0.00000  Uiso   1.00
O1655  O     0.27167   0.04480   0.72833   0.00000  Uiso   1.00
O1656  O     0.27167   0.54480   0.22833   0.00000  Uiso   1.00
O1657  O     0.77167   0.95520   0.77167   0.00000  Uiso   1.00
O1658  O     0.77167   0.45520   0.27167   0.00000  Uiso   1.00
O1659  O     0.27167   0.95520   0.27167   0.00000  Uiso   1.00
O1660  O     0.27167   0.45520   0.77167   0.00000  Uiso   1.00
O1661  O     0.22833   0.95520   0.22833   0.00000  Uiso   1.00
O1662  O     0.22833   0.45520   0.72833   0.00000  Uiso   1.00
O1663  O     0.72833   0.95520   0.72833   0.00000  Uiso   1.00
O1664  O     0.72833   0.45520   0.22833   0.00000  Uiso   1.00
O1665  O     0.04480   0.22833   0.77167   0.00000  Uiso   1.00
O1666  O     0.04480   0.72833   0.27167   0.00000  Uiso   1.00
O1667  O     0.54480   0.22833   0.27167   0.00000  Uiso   1.00
O1668  O     0.54480   0.72833   0.77167   0.00000  Uiso   1.00
O1669  O     0.04480   0.77167   0.22833   0.00000  Uiso   1.00
O1670  O     0.04480   0.27167   0.72833   0.00000  Uiso   1.00
O1671  O     0.54480   0.77167   0.72833   0.00000  Uiso   1.00
O1672  O     0.54480   0.27167   0.22833   0.00000  Uiso   1.00
O1673  O     0.95520   0.22833   0.22833   0.00000  Uiso   1.00
O1674  O     0.95520   0.72833   0.72833   0.00000  Uiso   1.00
O1675  O     0.45520   0.22833   0.72833   0.00000  Uiso   1.00
O1676  O     0.45520   0.72833   0.22833   0.00000  Uiso   1.00
O1677  O     0.95520   0.77167   0.77167   0.00000  Uiso   1.00
O1678  O     0.95520   0.27167   0.27167   0.00000  Uiso   1.00
O1679  O     0.45520   0.77167   0.27167   0.00000  Uiso   1.00
O1680  O     0.45520   0.27167   0.77167   0.00000  Uiso   1.00
O1681  O     0.23986   0.30360   0.00000   0.00000  Uiso   1.00
O1682  O     0.23986   0.80360   0.50000   0.00000  Uiso   1.00
O1683  O     0.73986   0.30360   0.50000   0.00000  Uiso   1.00
O1684  O     0.73986   0.80360   0.00000   0.00000  Uiso   1.00
O1685  O     0.76014   0.69640   0.00000   0.00000  Uiso   1.00
O1686  O     0.76014   0.19640   0.50000   0.00000  Uiso   1.00
O1687  O     0.26014   0.69640   0.50000   0.00000  Uiso   1.00
O1688  O     0.26014   0.19640   0.00000   0.00000  Uiso   1.00
O1689  O     0.76014   0.30360   0.00000   0.00000  Uiso   1.00
O1690  O     0.76014   0.80360   0.50000   0.00000  Uiso   1.00
O1691  O     0.26014   0.30360   0.50000   0.00000  Uiso   1.00
O1692  O     0.26014   0.80360   0.00000   0.00000  Uiso   1.00
O1693  O     0.23986   0.69640   0.00000   0.00000  Uiso   1.00
O1694  O     0.23986   0.19640   0.50000   0.00000  Uiso   1.00
O1695  O     0.73986   0.69640   0.50000   0.00000  Uiso   1.00
O1696  O     0.73986   0.19640   0.00000   0.00000  Uiso   1.00
O1697  O     0.00000   0.23986   0.30360   0.00000  Uiso   1.00
O1698  O     0.00000   0.73986   0.80360   0.00000  Uiso   1.00
O1699  O     0.50000   0.23986   0.80360   0.00000  Uiso   1.00
O1700  O     0.50000   0.73986   0.30360   0.00000  Uiso   1.00
O1701  O     0.00000   0.76014   0.69640   0.00000  Uiso   1.00
O1702  O     0.00000   0.26014   0.19640   0.00000  Uiso   1.00
O1703  O     0.50000   0.76014   0.19640   0.00000  Uiso   1.00
O1704  O     0.50000   0.26014   0.69640   0.00000  Uiso   1.00
O1705  O     0.00000   0.76014   0.30360   0.00000  Uiso   1.00
O1706  O     0.00000   0.26014   0.80360   0.00000  Uiso   1.00
O1707  O     0.50000   0.76014   0.80360   0.00000  Uiso   1.00
O1708  O     0.50000   0.26014   0.30360   0.00000  Uiso   1.00
O1709  O     0.00000   0.23986   0.69640   0.00000  Uiso   1.00
O1710  O     0.00000   0.73986   0.19640   0.00000  Uiso   1.00
O1711  O     0.50000   0.23986   0.19640   0.00000  Uiso   1.00
O1712  O     0.50000   0.73986   0.69640   0.00000  Uiso   1.00
O1713  O     0.30360   0.00000   0.23986   0.00000  Uiso   1.00
O1714  O     0.30360   0.50000   0.73986   0.00000  Uiso   1.00
O1715  O     0.80360   0.00000   0.73986   0.00000  Uiso   1.00
O1716  O     0.80360   0.50000   0.23986   0.00000  Uiso   1.00
O1717  O     0.69640   0.00000   0.76014   0.00000  Uiso   1.00
O1718  O     0.69640   0.50000   0.26014   0.00000  Uiso   1.00
O1719  O     0.19640   0.00000   0.26014   0.00000  Uiso   1.00
O1720  O     0.19640   0.50000   0.76014   0.00000  Uiso   1.00
O1721  O     0.30360   0.00000   0.76014   0.00000  Uiso   1.00
O1722  O     0.30360   0.50000   0.26014   0.00000  Uiso   1.00
O1723  O     0.80360   0.00000   0.26014   0.00000  Uiso   1.00
O1724  O     0.80360   0.50000   0.76014   0.00000  Uiso   1.00
O1725  O     0.69640   0.00000   0.23986   0.00000  Uiso   1.00
O1726  O     0.69640   0.50000   0.73986   0.00000  Uiso   1.00
O1727  O     0.19640   0.00000   0.73986   0.00000  Uiso   1.00
O1728  O     0.19640   0.50000   0.23986   0.00000  Uiso   1.00
O1729  O     0.30360   0.23986   0.00000   0.00000  Uiso   1.00
O1730  O     0.30360   0.73986   0.50000   0.00000  Uiso   1.00
O1731  O     0.80360   0.23986   0.50000   0.00000  Uiso   1.00
O1732  O     0.80360   0.73986   0.00000   0.00000  Uiso   1.00
O1733  O     0.69640   0.76014   0.00000   0.00000  Uiso   1.00
O1734  O     0.69640   0.26014   0.50000   0.00000  Uiso   1.00
O1735  O     0.19640   0.76014   0.50000   0.00000  Uiso   1.00
O1736  O     0.19640   0.26014   0.00000   0.00000  Uiso   1.00
O1737  O     0.30360   0.76014   0.00000   0.00000  Uiso   1.00
O1738  O     0.30360   0.26014   0.50000   0.00000  Uiso   1.00
O1739  O     0.80360   0.76014   0.50000   0.00000  Uiso   1.00
O1740  O     0.80360   0.26014   0.00000   0.00000  Uiso   1.00
O1741  O     0.69640   0.23986   0.00000   0.00000  Uiso   1.00
O1742  O     0.69640   0.73986   0.50000   0.00000  Uiso   1.00
O1743  O     0.19640   0.23986   0.50000   0.00000  Uiso   1.00
O1744  O     0.19640   0.73986   0.00000   0.00000  Uiso   1.00
O1745  O     0.23986   0.00000   0.69640   0.00000  Uiso   1.00
O1746  O     0.23986   0.50000   0.19640   0.00000  Uiso   1.00
O1747  O     0.73986   0.00000   0.19640   0.00000  Uiso   1.00
O1748  O     0.73986   0.50000   0.69640   0.00000  Uiso   1.00
O1749  O     0.76014   0.00000   0.30360   0.00000  Uiso   1.00
O1750  O     0.76014   0.50000   0.80360   0.00000  Uiso   1.00
O1751  O     0.26014   0.00000   0.80360   0.00000  Uiso   1.00
O1752  O     0.26014   0.50000   0.30360   0.00000  Uiso   1.00
O1753  O     0.76014   0.00000   0.69640   0.00000  Uiso   1.00
O1754  O     0.76014   0.50000   0.19640   0.00000  Uiso   1.00
O1755  O     0.26014   0.00000   0.19640   0.00000  Uiso   1.00
O1756  O     0.26014   0.50000   0.69640   0.00000  Uiso   1.00
O1757  O     0.23986   0.00000   0.30360   0.00000  Uiso   1.00
O1758  O     0.23986   0.50000   0.80360   0.00000  Uiso   1.00
O1759  O     0.73986   0.00000   0.80360   0.00000  Uiso   1.00
O1760  O     0.73986   0.50000   0.30360   0.00000  Uiso   1.00
O1761  O     0.00000   0.30360   0.76014   0.00000  Uiso   1.00
O1762  O     0.00000   0.80360   0.26014   0.00000  Uiso   1.00
O1763  O     0.50000   0.30360   0.26014   0.00000  Uiso   1.00
O1764  O     0.50000   0.80360   0.76014   0.00000  Uiso   1.00
O1765  O     0.00000   0.69640   0.23986   0.00000  Uiso   1.00
O1766  O     0.00000   0.19640   0.73986   0.00000  Uiso   1.00
O1767  O     0.50000   0.69640   0.73986   0.00000  Uiso   1.00
O1768  O     0.50000   0.19640   0.23986   0.00000  Uiso   1.00
O1769  O     0.00000   0.30360   0.23986   0.00000  Uiso   1.00
O1770  O     0.00000   0.80360   0.73986   0.00000  Uiso   1.00
O1771  O     0.50000   0.30360   0.73986   0.00000  Uiso   1.00
O1772  O     0.50000   0.80360   0.23986   0.00000  Uiso   1.00
O1773  O     0.00000   0.69640   0.76014   0.00000  Uiso   1.00
O1774  O     0.00000   0.19640   0.26014   0.00000  Uiso   1.00
O1775  O     0.50000   0.69640   0.26014   0.00000  Uiso   1.00
O1776  O     0.50000   0.19640   0.76014   0.00000  Uiso   1.00
H1777  H     0.25087   0.27750   0.10070   0.00000  Uiso   1.00
H1778  H     0.20740   0.32097   0.04340   0.00000  Uiso   1.00
H1779  H     0.25087   0.77750   0.60070   0.00000  Uiso   1.00
H1780  H     0.20740   0.82097   0.54340   0.00000  Uiso   1.00
H1781  H     0.80587   0.72250   0.10070   0.00000  Uiso   1.00
H1782  H     0.84934   0.67903   0.04340   0.00000  Uiso   1.00
H1783  H     0.80587   0.22250   0.60070   0.00000  Uiso   1.00
H1784  H     0.84934   0.17903   0.54340   0.00000  Uiso   1.00
H1785  H     0.30587   0.22250   0.10070   0.00000  Uiso   1.00
H1786  H     0.34934   0.17903   0.04340   0.00000  Uiso   1.00
H1787  H     0.80587   0.27750   0.89930   0.00000  Uiso   1.00
H1788  H     0.84934   0.32097   0.95660   0.00000  Uiso   1.00
H1789  H     0.80587   0.77750   0.39930   0.00000  Uiso   1.00
H1790  H     0.84934   0.82097   0.45660   0.00000  Uiso   1.00
H1791  H     0.30587   0.27750   0.39930   0.00000  Uiso   1.00
H1792  H     0.34934   0.32097   0.45660   0.00000  Uiso   1.00
H1793  H     0.25087   0.72250   0.89930   0.00000  Uiso   1.00
H1794  H     0.20740   0.67903   0.95660   0.00000  Uiso   1.00
H1795  H     0.25087   0.22250   0.39930   0.00000  Uiso   1.00
H1796  H     0.20740   0.17903   0.45660   0.00000  Uiso   1.00
H1797  H     0.12907   0.22250   0.27750   0.00000  Uiso   1.00
H1798  H     0.07177   0.17903   0.32097   0.00000  Uiso   1.00
H1799  H     0.62907   0.22250   0.77750   0.00000  Uiso   1.00
H1800  H     0.57177   0.17903   0.82097   0.00000  Uiso   1.00
H1801  H     0.12907   0.77750   0.72250   0.00000  Uiso   1.00
H1802  H     0.07177   0.82097   0.67903   0.00000  Uiso   1.00
H1803  H     0.12907   0.27750   0.22250   0.00000  Uiso   1.00
H1804  H     0.07177   0.32097   0.17903   0.00000  Uiso   1.00
H1805  H     0.62907   0.77750   0.22250   0.00000  Uiso   1.00
H1806  H     0.57177   0.82097   0.17903   0.00000  Uiso   1.00
H1807  H     0.92767   0.77750   0.27750   0.00000  Uiso   1.00
H1808  H     0.98497   0.82097   0.32097   0.00000  Uiso   1.00
H1809  H     0.42767   0.77750   0.77750   0.00000  Uiso   1.00
H1810  H     0.48497   0.82097   0.82097   0.00000  Uiso   1.00
H1811  H     0.42767   0.27750   0.27750   0.00000  Uiso   1.00
H1812  H     0.48497   0.32097   0.32097   0.00000  Uiso   1.00
H1813  H     0.92767   0.22250   0.72250   0.00000  Uiso   1.00
H1814  H     0.98497   0.17903   0.67903   0.00000  Uiso   1.00
H1815  H     0.42767   0.22250   0.22250   0.00000  Uiso   1.00
H1816  H     0.48497   0.17903   0.17903   0.00000  Uiso   1.00
H1817  H     0.30587   0.10070   0.22250   0.00000  Uiso   1.00
H1818  H     0.34934   0.04340   0.17903   0.00000  Uiso   1.00
H1819  H     0.30587   0.60070   0.72250   0.00000  Uiso   1.00
H1820  H     0.34934   0.54340   0.67903   0.00000  Uiso   1.00
H1821  H     0.75087   0.10070   0.77750   0.00000  Uiso   1.00
H1822  H     0.70740   0.04340   0.82097   0.00000  Uiso   1.00
H1823  H     0.75087   0.60070   0.27750   0.00000  Uiso   1.00
H1824  H     0.70740   0.54340   0.32097   0.00000  Uiso   1.00
H1825  H     0.25087   0.10070   0.27750   0.00000  Uiso   1.00
H1826  H     0.20740   0.04340   0.32097   0.00000  Uiso   1.00
H1827  H     0.30587   0.89930   0.77750   0.00000  Uiso   1.00
H1828  H     0.34934   0.95660   0.82097   0.00000  Uiso   1.00
H1829  H     0.30587   0.39930   0.27750   0.00000  Uiso   1.00
H1830  H     0.34934   0.45660   0.32097   0.00000  Uiso   1.00
H1831  H     0.75087   0.89930   0.22250   0.00000  Uiso   1.00
H1832  H     0.70740   0.95660   0.17903   0.00000  Uiso   1.00
H1833  H     0.75087   0.39930   0.72250   0.00000  Uiso   1.00
H1834  H     0.70740   0.45660   0.67903   0.00000  Uiso   1.00
H1835  H     0.25087   0.39930   0.22250   0.00000  Uiso   1.00
H1836  H     0.20740   0.45660   0.17903   0.00000  Uiso   1.00
H1837  H     0.30587   0.22250   0.89930   0.00000  Uiso   1.00
H1838  H     0.34934   0.17903   0.95660   0.00000  Uiso   1.00
H1839  H     0.30587   0.72250   0.39930   0.00000  Uiso   1.00
H1840  H     0.34934   0.67903   0.45660   0.00000  Uiso   1.00
H1841  H     0.75087   0.77750   0.89930   0.00000  Uiso   1.00
H1842  H     0.70740   0.82097   0.95660   0.00000  Uiso   1.00
H1843  H     0.75087   0.27750   0.39930   0.00000  Uiso   1.00
H1844  H     0.70740   0.32097   0.45660   0.00000  Uiso   1.00
H1845  H     0.25087   0.27750   0.89930   0.00000  Uiso   1.00
H1846  H     0.20740   0.32097   0.95660   0.00000  Uiso   1.00
H1847  H     0.30587   0.77750   0.10070   0.00000  Uiso   1.00
H1848  H     0.34934   0.82097   0.04340   0.00000  Uiso   1.00
H1849  H     0.30587   0.27750   0.60070   0.00000  Uiso   1.00
H1850  H     0.34934   0.32097   0.54340   0.00000  Uiso   1.00
H1851  H     0.75087   0.22250   0.10070   0.00000  Uiso   1.00
H1852  H     0.70740   0.17903   0.04340   0.00000  Uiso   1.00
H1853  H     0.75087   0.72250   0.60070   0.00000  Uiso   1.00
H1854  H     0.70740   0.67903   0.54340   0.00000  Uiso   1.00
H1855  H     0.25087   0.22250   0.60070   0.00000  Uiso   1.00
H1856  H     0.20740   0.17903   0.54340   0.00000  Uiso   1.00
H1857  H     0.25087   0.10070   0.72250   0.00000  Uiso   1.00
H1858  H     0.20740   0.04340   0.67903   0.00000  Uiso   1.00
H1859  H     0.25087   0.60070   0.22250   0.00000  Uiso   1.00
H1860  H     0.20740   0.54340   0.17903   0.00000  Uiso   1.00
H1861  H     0.80587   0.10070   0.27750   0.00000  Uiso   1.00
H1862  H     0.84934   0.04340   0.32097   0.00000  Uiso   1.00
H1863  H     0.80587   0.60070   0.77750   0.00000  Uiso   1.00
H1864  H     0.84934   0.54340   0.82097   0.00000  Uiso   1.00
H1865  H     0.30587   0.60070   0.27750   0.00000  Uiso   1.00
H1866  H     0.34934   0.54340   0.32097   0.00000  Uiso   1.00
H1867  H     0.80587   0.89930   0.72250   0.00000  Uiso   1.00
H1868  H     0.84934   0.95660   0.67903   0.00000  Uiso   1.00
H1869  H     0.80587   0.39930   0.22250   0.00000  Uiso   1.00
H1870  H     0.84934   0.45660   0.17903   0.00000  Uiso   1.00
H1871  H     0.30587   0.89930   0.22250   0.00000  Uiso   1.00
H1872  H     0.34934   0.95660   0.17903   0.00000  Uiso   1.00
H1873  H     0.25087   0.89930   0.27750   0.00000  Uiso   1.00
H1874  H     0.20740   0.95660   0.32097   0.00000  Uiso   1.00
H1875  H     0.25087   0.39930   0.77750   0.00000  Uiso   1.00
H1876  H     0.20740   0.45660   0.82097   0.00000  Uiso   1.00
H1877  H     0.12907   0.27750   0.77750   0.00000  Uiso   1.00
H1878  H     0.07177   0.32097   0.82097   0.00000  Uiso   1.00
H1879  H     0.62907   0.27750   0.27750   0.00000  Uiso   1.00
H1880  H     0.57177   0.32097   0.32097   0.00000  Uiso   1.00
H1881  H     0.12907   0.72250   0.22250   0.00000  Uiso   1.00
H1882  H     0.07177   0.67903   0.17903   0.00000  Uiso   1.00
H1883  H     0.62907   0.72250   0.72250   0.00000  Uiso   1.00
H1884  H     0.57177   0.67903   0.67903   0.00000  Uiso   1.00
H1885  H     0.62907   0.22250   0.22250   0.00000  Uiso   1.00
H1886  H     0.57177   0.17903   0.17903   0.00000  Uiso   1.00
H1887  H     0.92767   0.27750   0.22250   0.00000  Uiso   1.00
H1888  H     0.98497   0.32097   0.17903   0.00000  Uiso   1.00
H1889  H     0.42767   0.27750   0.72250   0.00000  Uiso   1.00
H1890  H     0.48497   0.32097   0.67903   0.00000  Uiso   1.00
H1891  H     0.92767   0.72250   0.77750   0.00000  Uiso   1.00
H1892  H     0.98497   0.67903   0.82097   0.00000  Uiso   1.00
H1893  H     0.92767   0.22250   0.27750   0.00000  Uiso   1.00
H1894  H     0.98497   0.17903   0.32097   0.00000  Uiso   1.00
H1895  H     0.42767   0.72250   0.27750   0.00000  Uiso   1.00
H1896  H     0.48497   0.67903   0.32097   0.00000  Uiso   1.00
H1897  H     0.80587   0.72250   0.89930   0.00000  Uiso   1.00
H1898  H     0.84934   0.67903   0.95660   0.00000  Uiso   1.00
H1899  H     0.80587   0.22250   0.39930   0.00000  Uiso   1.00
H1900  H     0.84934   0.17903   0.45660   0.00000  Uiso   1.00
H1901  H     0.25087   0.77750   0.39930   0.00000  Uiso   1.00
H1902  H     0.20740   0.82097   0.45660   0.00000  Uiso   1.00
H1903  H     0.25087   0.72250   0.10070   0.00000  Uiso   1.00
H1904  H     0.20740   0.67903   0.04340   0.00000  Uiso   1.00
H1905  H     0.80587   0.27750   0.10070   0.00000  Uiso   1.00
H1906  H     0.84934   0.32097   0.04340   0.00000  Uiso   1.00
H1907  H     0.80587   0.77750   0.60070   0.00000  Uiso   1.00
H1908  H     0.84934   0.82097   0.54340   0.00000  Uiso   1.00
H1909  H     0.92767   0.77750   0.72250   0.00000  Uiso   1.00
H1910  H     0.98497   0.82097   0.67903   0.00000  Uiso   1.00
H1911  H     0.42767   0.77750   0.22250   0.00000  Uiso   1.00
H1912  H     0.48497   0.82097   0.17903   0.00000  Uiso   1.00
H1913  H     0.42767   0.22250   0.77750   0.00000  Uiso   1.00
H1914  H     0.48497   0.17903   0.82097   0.00000  Uiso   1.00
H1915  H     0.12907   0.22250   0.72250   0.00000  Uiso   1.00
H1916  H     0.07177   0.17903   0.67903   0.00000  Uiso   1.00
H1917  H     0.12907   0.77750   0.27750   0.00000  Uiso   1.00
H1918  H     0.07177   0.82097   0.32097   0.00000  Uiso   1.00
H1919  H     0.62907   0.77750   0.77750   0.00000  Uiso   1.00
H1920  H     0.57177   0.82097   0.82097   0.00000  Uiso   1.00
H1921  H     0.75087   0.89930   0.77750   0.00000  Uiso   1.00
H1922  H     0.70740   0.95660   0.82097   0.00000  Uiso   1.00
H1923  H     0.75087   0.39930   0.27750   0.00000  Uiso   1.00
H1924  H     0.70740   0.45660   0.32097   0.00000  Uiso   1.00
H1925  H     0.30587   0.39930   0.72250   0.00000  Uiso   1.00
H1926  H     0.34934   0.45660   0.67903   0.00000  Uiso   1.00
H1927  H     0.75087   0.10070   0.22250   0.00000  Uiso   1.00
H1928  H     0.70740   0.04340   0.17903   0.00000  Uiso   1.00
H1929  H     0.75087   0.60070   0.72250   0.00000  Uiso   1.00
H1930  H     0.70740   0.54340   0.67903   0.00000  Uiso   1.00
H1931  H     0.30587   0.10070   0.77750   0.00000  Uiso   1.00
H1932  H     0.34934   0.04340   0.82097   0.00000  Uiso   1.00
H1933  H     0.75087   0.77750   0.10070   0.00000  Uiso   1.00
H1934  H     0.70740   0.82097   0.04340   0.00000  Uiso   1.00
H1935  H     0.75087   0.27750   0.60070   0.00000  Uiso   1.00
H1936  H     0.70740   0.32097   0.54340   0.00000  Uiso   1.00
H1937  H     0.30587   0.72250   0.60070   0.00000  Uiso   1.00
H1938  H     0.34934   0.67903   0.54340   0.00000  Uiso   1.00
H1939  H     0.75087   0.22250   0.89930   0.00000  Uiso   1.00
H1940  H     0.70740   0.17903   0.95660   0.00000  Uiso   1.00
H1941  H     0.75087   0.72250   0.39930   0.00000  Uiso   1.00
H1942  H     0.70740   0.67903   0.45660   0.00000  Uiso   1.00
H1943  H     0.30587   0.77750   0.89930   0.00000  Uiso   1.00
H1944  H     0.34934   0.82097   0.95660   0.00000  Uiso   1.00
H1945  H     0.80587   0.89930   0.27750   0.00000  Uiso   1.00
H1946  H     0.84934   0.95660   0.32097   0.00000  Uiso   1.00
H1947  H     0.80587   0.39930   0.77750   0.00000  Uiso   1.00
H1948  H     0.84934   0.45660   0.82097   0.00000  Uiso   1.00
H1949  H     0.25087   0.89930   0.72250   0.00000  Uiso   1.00
H1950  H     0.20740   0.95660   0.67903   0.00000  Uiso   1.00
H1951  H     0.25087   0.60070   0.77750   0.00000  Uiso   1.00
H1952  H     0.20740   0.54340   0.82097   0.00000  Uiso   1.00
H1953  H     0.80587   0.10070   0.72250   0.00000  Uiso   1.00
H1954  H     0.84934   0.04340   0.67903   0.00000  Uiso   1.00
H1955  H     0.80587   0.60070   0.22250   0.00000  Uiso   1.00
H1956  H     0.84934   0.54340   0.17903   0.00000  Uiso   1.00
H1957  H     0.92767   0.72250   0.22250   0.00000  Uiso   1.00
H1958  H     0.98497   0.67903   0.17903   0.00000  Uiso   1.00
H1959  H     0.42767   0.72250   0.72250   0.00000  Uiso   1.00
H1960  H     0.48497   0.67903   0.67903   0.00000  Uiso   1.00
H1961  H     0.92767   0.27750   0.77750   0.00000  Uiso   1.00
H1962  H     0.98497   0.32097   0.82097   0.00000  Uiso   1.00
H1963  H     0.12907   0.72250   0.77750   0.00000  Uiso   1.00
H1964  H     0.07177   0.67903   0.82097   0.00000  Uiso   1.00
H1965  H     0.62907   0.72250   0.27750   0.00000  Uiso   1.00
H1966  H     0.57177   0.67903   0.32097   0.00000  Uiso   1.00
H1967  H     0.62907   0.27750   0.72250   0.00000  Uiso   1.00
H1968  H     0.57177   0.32097   0.67903   0.00000  Uiso   1.00
loop_
_geom_bond_atom_site_label_1
_geom_bond_atom_site_label_2
_geom_bond_distance
_geom_bond_site_symmetry_2
_ccdc_geom_bond_type
C1     C2      1.480   .     S
C1     O5      1.258   .     S
C1     O6      1.258   .     D
C2     C3      1.362   .     D
C2     S1489   1.710   .     S
C3     H4      1.140   .     S
C3     C1011   1.395   .     S
O5     Zr1441  2.214   .     S
O6     Zr1165  2.277   .     S
C7     C8      1.480   .     S
C7     O11     1.258   .     S
C7     O12     1.258   .     D
C8     C9      1.362   .     D
C8     S1490   1.710   .     S
C9     H10     1.140   .     S
C9     C1017   1.395   .     S
O11    Zr1442  2.214   .     S
O12    Zr1393  2.277   .     S
C13    C14     1.480   .     S
C13    O17     1.258   .     S
C13    O18     1.258   .     D
C14    C15     1.362   .     D
C14    S1491   1.710   .     S
C15    H16     1.140   .     S
C15    C1023   1.395   .     S
O17    Zr1443  2.214   .     S
O18    Zr1162  2.277   .     S
C19    C20     1.480   .     S
C19    O23     1.258   .     S
C19    O24     1.258   .     D
C20    C21     1.362   .     D
C20    S1492   1.710   .     S
C21    H22     1.140   .     S
C21    C1029   1.395   .     S
O23    Zr1444  2.214   .     S
O24    Zr1159  2.277   .     S
C25    C26     1.480   .     S
C25    O29     1.258   .     S
C25    O30     1.258   .     D
C26    C27     1.362   .     D
C26    S1493   1.710   .     S
C27    H28     1.140   .     S
C27    C963    1.395   .     S
O29    Zr1445  2.214   .     S
O30    Zr1387  2.277   .     S
C31    C32     1.480   .     S
C31    O35     1.258   .     S
C31    O36     1.258   .     D
C32    C33     1.362   .     D
C32    S1494   1.710   .     S
C33    H34     1.140   .     S
C33    C969    1.395   .     S
O35    Zr1446  2.214   .     S
O36    Zr1390  2.277   .     S
C37    C38     1.480   .     S
C37    O41     1.258   .     S
C37    O42     1.258   .     D
C38    C39     1.362   .     D
C38    S1495   1.710   .     S
C39    H40     1.140   .     S
C39    C975    1.395   .     S
O41    Zr1447  2.214   .     S
O42    Zr1156  2.277   .     S
C43    C44     1.480   .     S
C43    O47     1.258   .     S
C43    O48     1.258   .     D
C44    C45     1.362   .     D
C44    S1496   1.710   .     S
C45    H46     1.140   .     S
C45    C981    1.395   .     S
O47    Zr1448  2.214   .     S
O48    Zr1153  2.277   .     S
C49    C50     1.480   .     S
C49    O53     1.258   .     S
C49    O54     1.258   .     D
C50    C51     1.362   .     D
C50    S1497   1.710   .     S
C51    H52     1.140   .     S
C51    C1035   1.395   .     S
O53    Zr1449  2.214   1_556 S
O54    Zr1396  2.277   .     S
C55    C56     1.480   .     S
C55    O59     1.258   .     S
C55    O60     1.258   .     D
C56    C57     1.362   .     D
C56    S1498   1.710   .     S
C57    H58     1.140   .     S
C57    C1041   1.395   .     S
O59    Zr1450  2.214   .     S
O60    Zr1399  2.277   .     S
C61    C62     1.480   .     S
C61    O65     1.258   .     S
C61    O66     1.258   .     D
C62    C63     1.362   .     D
C62    S1499   1.710   .     S
C63    H64     1.140   .     S
C63    C1047   1.395   .     S
O65    Zr1451  2.214   .     S
O66    Zr1180  2.277   .     S
C67    C68     1.480   .     S
C67    O71     1.258   .     S
C67    O72     1.258   .     D
C68    C69     1.362   .     D
C68    S1500   1.710   .     S
C69    H70     1.140   .     S
C69    C1053   1.395   .     S
O71    Zr1452  2.214   1_556 S
O72    Zr1177  2.277   .     S
C73    C74     1.480   .     S
C73    O77     1.258   .     S
C73    O78     1.258   .     D
C74    C75     1.362   .     D
C74    S1501   1.710   .     S
C75    H76     1.140   .     S
C75    C987    1.395   .     S
O77    Zr1453  2.214   1_556 D
O78    Zr1402  2.277   .     S
C79    C80     1.480   .     S
C79    O83     1.258   .     S
C79    O84     1.258   .     D
C80    C81     1.362   .     D
C80    S1502   1.710   .     S
C81    H82     1.140   .     S
C81    C993    1.395   .     S
O83    Zr1454  2.214   .     S
O84    Zr1174  2.277   .     S
C85    C86     1.480   .     S
C85    O89     1.258   .     S
C85    O90     1.258   .     D
C86    C87     1.362   .     D
C86    S1503   1.710   .     S
C87    H88     1.140   .     S
C87    C999    1.395   .     S
O89    Zr1455  2.214   .     S
O90    Zr1171  2.277   .     S
C91    C92     1.480   .     S
C91    O95     1.258   .     S
C91    O96     1.258   .     D
C92    C93     1.362   .     D
C92    S1504   1.710   .     S
C93    H94     1.140   .     S
C93    C1005   1.395   .     S
O95    Zr1456  2.214   1_556 D
O96    Zr1168  2.277   .     S
C97    C98     1.480   .     S
C97    O101    1.258   .     S
C97    O102    1.258   .     D
C98    C99     1.362   .     D
C98    S1505   1.710   .     S
C99    H100    1.140   .     S
C99    C891    1.395   .     S
O101   Zr1457  2.214   .     S
O102   Zr1192  2.277   .     S
C103   C104    1.480   .     S
C103   O107    1.258   .     S
C103   O108    1.258   .     D
C104   C105    1.362   .     D
C104   S1506   1.710   .     S
C105   H106    1.140   .     S
C105   C897    1.395   .     S
O107   Zr1458  2.214   .     S
O108   Zr1189  2.277   .     S
C109   C110    1.480   .     S
C109   O113    1.258   .     S
C109   O114    1.258   .     D
C110   C111    1.362   .     D
C110   S1507   1.710   .     S
C111   H112    1.140   .     S
C111   C903    1.395   .     S
O113   Zr1459  2.214   .     S
O114   Zr1438  2.277   .     S
C115   C116    1.480   .     S
C115   O119    1.258   .     S
C115   O120    1.258   .     D
C116   C117    1.362   .     D
C116   S1508   1.710   .     S
C117   H118    1.140   .     S
C117   C909    1.395   .     S
O119   Zr1460  2.214   .     S
O120   Zr1195  2.277   .     S
C121   C122    1.480   .     S
C121   O125    1.258   .     S
C121   O126    1.258   .     D
C122   C123    1.362   .     D
C122   S1509   1.710   .     S
C123   H124    1.140   .     S
C123   C939    1.395   .     S
O125   Zr1461  2.214   .     S
O126   Zr1432  2.277   .     S
C127   C128    1.480   .     S
C127   O131    1.258   .     S
C127   O132    1.258   .     D
C128   C129    1.362   .     D
C128   S1510   1.710   .     S
C129   H130    1.140   .     S
C129   C945    1.395   .     S
O131   Zr1462  2.214   .     S
O132   Zr1183  2.277   .     S
C133   C134    1.480   .     S
C133   O137    1.258   .     S
C133   O138    1.258   .     D
C134   C135    1.362   .     D
C134   S1511   1.710   .     S
C135   H136    1.140   .     S
C135   C951    1.395   .     S
O137   Zr1463  2.214   .     S
O138   Zr1435  2.277   .     S
C139   C140    1.480   .     S
C139   O143    1.258   .     S
C139   O144    1.258   .     D
C140   C141    1.362   .     D
C140   S1512   1.710   .     S
C141   H142    1.140   .     S
C141   C957    1.395   .     S
O143   Zr1464  2.214   .     S
O144   Zr1186  2.277   .     S
C145   C146    1.480   .     S
C145   O149    1.258   .     S
C145   O150    1.258   .     D
C146   C147    1.362   .     D
C146   S1513   1.710   .     S
C147   H148    1.140   .     S
C147   C867    1.395   .     S
O149   Zr1465  2.214   1_655 S
O150   Zr1423  2.277   .     S
C151   C152    1.480   .     S
C151   O155    1.258   .     S
C151   O156    1.258   .     D
C152   C153    1.362   .     D
C152   S1514   1.710   .     S
C153   H154    1.140   .     S
C153   C873    1.395   .     S
O155   Zr1466  2.214   1_655 S
O156   Zr1207  2.277   .     S
C157   C158    1.480   .     S
C157   O161    1.258   .     S
C157   O162    1.258   .     D
C158   C159    1.362   .     D
C158   S1515   1.710   .     S
C159   H160    1.140   .     S
C159   C879    1.395   .     S
O161   Zr1467  2.214   .     S
O162   Zr1426  2.277   .     S
C163   C164    1.480   .     S
C163   O167    1.258   .     S
C163   O168    1.258   .     D
C164   C165    1.362   .     D
C164   S1516   1.710   .     S
C165   H166    1.140   .     S
C165   C885    1.395   .     S
O167   Zr1468  2.214   .     S
O168   Zr1210  2.277   .     S
C169   C170    1.480   .     S
C169   O173    1.258   .     S
C169   O174    1.258   .     D
C170   C171    1.362   .     D
C170   S1517   1.710   .     S
C171   H172    1.140   .     S
C171   C915    1.395   .     S
O173   Zr1469  2.214   1_655 S
O174   Zr1429  2.277   .     S
C175   C176    1.480   .     S
C175   O179    1.258   .     S
C175   O180    1.258   .     D
C176   C177    1.362   .     D
C176   S1518   1.710   .     S
C177   H178    1.140   .     S
C177   C921    1.395   .     S
O179   Zr1470  2.214   1_655 S
O180   Zr1198  2.277   .     S
C181   C182    1.480   .     S
C181   O185    1.258   .     S
C181   O186    1.258   .     D
C182   C183    1.362   .     D
C182   S1519   1.710   .     S
C183   H184    1.140   .     S
C183   C927    1.395   .     S
O185   Zr1471  2.214   .     S
O186   Zr1204  2.277   .     S
C187   C188    1.480   .     S
C187   O191    1.258   .     S
C187   O192    1.258   .     D
C188   C189    1.362   .     D
C188   S1520   1.710   .     S
C189   H190    1.140   .     S
C189   C933    1.395   .     S
O191   Zr1472  2.214   .     S
O192   Zr1201  2.277   .     S
C193   C194    1.480   .     S
C193   O197    1.258   .     S
C193   O198    1.258   .     D
C194   C195    1.362   .     D
C194   S1521   1.710   .     S
C195   H196    1.140   .     S
C195   C1131   1.395   .     S
O197   Zr1473  2.214   .     S
O198   Zr1225  2.277   .     S
C199   C200    1.480   .     S
C199   O203    1.258   .     S
C199   O204    1.258   .     D
C200   C201    1.362   .     D
C200   S1522   1.710   .     S
C201   H202    1.140   .     S
C201   C1137   1.395   .     S
O203   Zr1474  2.214   .     S
O204   Zr1414  2.277   .     S
C205   C206    1.480   .     S
C205   O209    1.258   .     S
C205   O210    1.258   .     D
C206   C207    1.362   .     D
C206   S1523   1.710   .     S
C207   H208    1.140   .     S
C207   C1143   1.395   .     S
O209   Zr1475  2.214   .     S
O210   Zr1219  2.277   .     S
C211   C212    1.480   .     S
C211   O215    1.258   .     S
C211   O216    1.258   .     D
C212   C213    1.362   .     D
C212   S1524   1.710   .     S
C213   H214    1.140   .     S
C213   C1149   1.395   .     S
O215   Zr1476  2.214   .     S
O216   Zr1222  2.277   .     S
C217   C218    1.480   .     S
C217   O221    1.258   .     S
C217   O222    1.258   .     D
C218   C219    1.362   .     D
C218   S1525   1.710   .     S
C219   H220    1.140   .     S
C219   C1083   1.395   .     S
O221   Zr1477  2.214   .     S
O222   Zr1417  2.277   .     S
C223   C224    1.480   .     S
C223   O227    1.258   .     S
C223   O228    1.258   .     D
C224   C225    1.362   .     D
C224   S1526   1.710   .     S
C225   H226    1.140   .     S
C225   C1089   1.395   .     S
O227   Zr1478  2.214   .     S
O228   Zr1420  2.277   .     S
C229   C230    1.480   .     S
C229   O233    1.258   .     S
C229   O234    1.258   .     D
C230   C231    1.362   .     D
C230   S1527   1.710   .     S
C231   H232    1.140   .     S
C231   C1095   1.395   .     S
O233   Zr1479  2.214   .     S
O234   Zr1213  2.277   .     S
C235   C236    1.480   .     S
C235   O239    1.258   .     S
C235   O240    1.258   .     D
C236   C237    1.362   .     D
C236   S1528   1.710   .     S
C237   H238    1.140   .     S
C237   C1101   1.395   .     S
O239   Zr1480  2.214   .     S
O240   Zr1216  2.277   .     S
C241   C242    1.480   .     S
C241   O245    1.258   .     S
C241   O246    1.258   .     D
C242   C243    1.362   .     D
C242   S1529   1.710   .     S
C243   H244    1.140   .     S
C243   C1107   1.395   .     S
O245   Zr1481  2.214   1_565 S
O246   Zr1411  2.277   .     S
C247   C248    1.480   .     S
C247   O251    1.258   .     S
C247   O252    1.258   .     D
C248   C249    1.362   .     D
C248   S1530   1.710   .     S
C249   H250    1.140   .     S
C249   C1113   1.395   .     S
O251   Zr1482  2.214   .     S
O252   Zr1240  2.277   .     S
C253   C254    1.480   .     S
C253   O257    1.258   .     S
C253   O258    1.258   .     D
C254   C255    1.362   .     D
C254   S1531   1.710   .     S
C255   H256    1.140   .     S
C255   C1119   1.395   .     S
O257   Zr1483  2.214   1_565 S
O258   Zr1234  2.277   .     S
C259   C260    1.480   .     S
C259   O263    1.258   .     S
C259   O264    1.258   .     D
C260   C261    1.362   .     D
C260   S1532   1.710   .     S
C261   H262    1.140   .     S
C261   C1125   1.395   .     S
O263   Zr1484  2.214   .     S
O264   Zr1237  2.277   .     S
C265   C266    1.480   .     S
C265   O269    1.258   .     S
C265   O270    1.258   .     D
C266   C267    1.362   .     D
C266   S1533   1.710   .     S
C267   H268    1.140   .     S
C267   C1059   1.395   .     S
O269   Zr1485  2.214   1_565 S
O270   Zr1405  2.277   .     S
C271   C272    1.480   .     S
C271   O275    1.258   .     S
C271   O276    1.258   .     D
C272   C273    1.362   .     D
C272   S1534   1.710   .     S
C273   H274    1.140   .     S
C273   C1065   1.395   .     S
O275   Zr1486  2.214   .     S
O276   Zr1408  2.277   .     S
C277   C278    1.480   .     S
C277   O281    1.258   .     S
C277   O282    1.258   .     D
C278   C279    1.362   .     D
C278   S1535   1.710   .     S
C279   H280    1.140   .     S
C279   C1071   1.395   .     S
O281   Zr1487  2.214   1_565 D
O282   Zr1228  2.277   .     S
C283   C284    1.480   .     S
C283   O287    1.258   .     S
C283   O288    1.258   .     D
C284   C285    1.362   .     D
C284   S1536   1.710   .     S
C285   H286    1.140   .     S
C285   C1077   1.395   .     S
O287   Zr1488  2.214   .     S
O288   Zr1231  2.277   .     S
C289   C290    1.480   .     S
C289   O293    1.258   .     S
C289   O294    1.258   .     D
C290   C291    1.362   .     D
C290   S1537   1.710   .     S
C291   H292    1.140   .     S
C291   C723    1.395   .     S
O293   Zr1441  2.214   1_556 D
O294   Zr1255  2.277   .     S
C295   C296    1.480   .     S
C295   O299    1.258   .     S
C295   O300    1.258   .     D
C296   C297    1.362   .     D
C296   S1538   1.710   .     S
C297   H298    1.140   .     S
C297   C729    1.395   .     S
O299   Zr1442  2.214   .     S
O300   Zr1339  2.277   .     S
C301   C302    1.480   .     S
C301   O305    1.258   .     S
C301   O306    1.258   .     D
C302   C303    1.362   .     D
C302   S1539   1.710   .     S
C303   H304    1.140   .     S
C303   C735    1.395   .     S
O305   Zr1443  2.214   .     S
O306   Zr1252  2.277   .     S
C307   C308    1.480   .     S
C307   O311    1.258   .     S
C307   O312    1.258   .     D
C308   C309    1.362   .     D
C308   S1540   1.710   .     S
C309   H310    1.140   .     S
C309   C741    1.395   .     S
O311   Zr1444  2.214   1_556 S
O312   Zr1249  2.277   .     S
C313   C314    1.480   .     S
C313   O317    1.258   .     S
C313   O318    1.258   .     D
C314   C315    1.362   .     D
C314   S1541   1.710   .     S
C315   H316    1.140   .     S
C315   C675    1.395   .     S
O317   Zr1445  2.214   1_556 S
O318   Zr1333  2.277   .     S
C319   C320    1.480   .     S
C319   O323    1.258   .     S
C319   O324    1.258   .     D
C320   C321    1.362   .     D
C320   S1542   1.710   .     S
C321   H322    1.140   .     S
C321   C681    1.395   .     S
O323   Zr1446  2.214   .     S
O324   Zr1336  2.277   .     S
C325   C326    1.480   .     S
C325   O329    1.258   .     S
C325   O330    1.258   .     D
C326   C327    1.362   .     D
C326   S1543   1.710   .     S
C327   H328    1.140   .     S
C327   C687    1.395   .     S
O329   Zr1447  2.214   .     S
O330   Zr1246  2.277   .     S
C331   C332    1.480   .     S
C331   O335    1.258   .     S
C331   O336    1.258   .     D
C332   C333    1.362   .     D
C332   S1544   1.710   .     S
C333   H334    1.140   .     S
C333   C693    1.395   .     S
O335   Zr1448  2.214   1_556 S
O336   Zr1243  2.277   .     S
C337   C338    1.480   .     S
C337   O341    1.258   .     S
C337   O342    1.258   .     D
C338   C339    1.362   .     D
C338   S1545   1.710   .     S
C339   H340    1.140   .     S
C339   C747    1.395   .     S
O341   Zr1453  2.214   .     S
O342   Zr1342  2.277   .     S
C343   C344    1.480   .     S
C343   O347    1.258   .     S
C343   O348    1.258   .     D
C344   C345    1.362   .     D
C344   S1546   1.710   .     S
C345   H346    1.140   .     S
C345   C753    1.395   .     S
O347   Zr1454  2.214   .     S
O348   Zr1270  2.277   .     S
C349   C350    1.480   .     S
C349   O353    1.258   .     S
C349   O354    1.258   .     D
C350   C351    1.362   .     D
C350   S1547   1.710   .     S
C351   H352    1.140   .     S
C351   C759    1.395   .     S
O353   Zr1455  2.214   .     S
O354   Zr1267  2.277   .     S
C355   C356    1.480   .     S
C355   O359    1.258   .     S
C355   O360    1.258   .     D
C356   C357    1.362   .     D
C356   S1548   1.710   .     S
C357   H358    1.140   .     S
C357   C765    1.395   .     S
O359   Zr1456  2.214   .     S
O360   Zr1264  2.277   .     S
C361   C362    1.480   .     S
C361   O365    1.258   .     S
C361   O366    1.258   .     D
C362   C363    1.362   .     D
C362   S1549   1.710   .     S
C363   H364    1.140   .     S
C363   C699    1.395   .     S
O365   Zr1449  2.214   .     S
O366   Zr1345  2.277   .     S
C367   C368    1.480   .     S
C367   O371    1.258   .     S
C367   O372    1.258   .     D
C368   C369    1.362   .     D
C368   S1550   1.710   .     S
C369   H370    1.140   .     S
C369   C705    1.395   .     S
O371   Zr1450  2.214   .     S
O372   Zr1348  2.277   .     S
C373   C374    1.480   .     S
C373   O377    1.258   .     S
C373   O378    1.258   .     D
C374   C375    1.362   .     D
C374   S1551   1.710   .     S
C375   H376    1.140   .     S
C375   C711    1.395   .     S
O377   Zr1451  2.214   .     S
O378   Zr1261  2.277   .     S
C379   C380    1.480   .     S
C379   O383    1.258   .     S
C379   O384    1.258   .     D
C380   C381    1.362   .     D
C380   S1552   1.710   .     S
C381   H382    1.140   .     S
C381   C717    1.395   .     S
O383   Zr1452  2.214   .     S
O384   Zr1258  2.277   .     S
C385   C386    1.480   .     S
C385   O389    1.258   .     S
C385   O390    1.258   .     D
C386   C387    1.362   .     D
C386   S1553   1.710   .     S
C387   H388    1.140   .     S
C387   C603    1.395   .     S
O389   Zr1481  2.214   .     S
O390   Zr1384  2.277   .     S
C391   C392    1.480   .     S
C391   O395    1.258   .     S
C391   O396    1.258   .     D
C392   C393    1.362   .     D
C392   S1554   1.710   .     S
C393   H394    1.140   .     S
C393   C609    1.395   .     S
O395   Zr1482  2.214   .     S
O396   Zr1285  2.277   .     S
C397   C398    1.480   .     S
C397   O401    1.258   .     S
C397   O402    1.258   .     D
C398   C399    1.362   .     D
C398   S1555   1.710   .     S
C399   H400    1.140   .     S
C399   C615    1.395   .     S
O401   Zr1483  2.214   .     S
O402   Zr1279  2.277   .     S
C403   C404    1.480   .     S
C403   O407    1.258   .     S
C403   O408    1.258   .     D
C404   C405    1.362   .     D
C404   S1556   1.710   .     S
C405   H406    1.140   .     S
C405   C621    1.395   .     S
O407   Zr1484  2.214   .     S
O408   Zr1282  2.277   .     S
C409   C410    1.480   .     S
C409   O413    1.258   .     S
C409   O414    1.258   .     D
C410   C411    1.362   .     D
C410   S1557   1.710   .     S
C411   H412    1.140   .     S
C411   C651    1.395   .     S
O413   Zr1485  2.214   .     S
O414   Zr1378  2.277   .     S
C415   C416    1.480   .     S
C415   O419    1.258   .     S
C415   O420    1.258   .     D
C416   C417    1.362   .     D
C416   S1558   1.710   .     S
C417   H418    1.140   .     S
C417   C657    1.395   .     S
O419   Zr1486  2.214   .     S
O420   Zr1381  2.277   .     S
C421   C422    1.480   .     S
C421   O425    1.258   .     S
C421   O426    1.258   .     D
C422   C423    1.362   .     D
C422   S1559   1.710   .     S
C423   H424    1.140   .     S
C423   C663    1.395   .     S
O425   Zr1487  2.214   .     S
O426   Zr1273  2.277   .     S
C427   C428    1.480   .     S
C427   O431    1.258   .     S
C427   O432    1.258   .     D
C428   C429    1.362   .     D
C428   S1560   1.710   .     S
C429   H430    1.140   .     S
C429   C669    1.395   .     S
O431   Zr1488  2.214   .     S
O432   Zr1276  2.277   .     S
C433   C434    1.480   .     S
C433   O437    1.258   .     S
C433   O438    1.258   .     D
C434   C435    1.362   .     D
C434   S1561   1.710   .     S
C435   H436    1.140   .     S
C435   C579    1.395   .     S
O437   Zr1477  2.214   1_565 S
O438   Zr1369  2.277   .     S
C439   C440    1.480   .     S
C439   O443    1.258   .     S
C439   O444    1.258   .     D
C440   C441    1.362   .     D
C440   S1562   1.710   .     S
C441   H442    1.140   .     S
C441   C585    1.395   .     S
O443   Zr1478  2.214   .     S
O444   Zr1372  2.277   .     S
C445   C446    1.480   .     S
C445   O449    1.258   .     S
C445   O450    1.258   .     D
C446   C447    1.362   .     D
C446   S1563   1.710   .     S
C447   H448    1.140   .     S
C447   C591    1.395   .     S
O449   Zr1479  2.214   1_565 S
O450   Zr1297  2.277   .     S
C451   C452    1.480   .     S
C451   O455    1.258   .     S
C451   O456    1.258   .     D
C452   C453    1.362   .     D
C452   S1564   1.710   .     S
C453   H454    1.140   .     S
C453   C597    1.395   .     S
O455   Zr1480  2.214   .     S
O456   Zr1300  2.277   .     S
C457   C458    1.480   .     S
C457   O461    1.258   .     S
C457   O462    1.258   .     D
C458   C459    1.362   .     D
C458   S1565   1.710   .     S
C459   H460    1.140   .     S
C459   C627    1.395   .     S
O461   Zr1473  2.214   1_565 S
O462   Zr1294  2.277   .     S
C463   C464    1.480   .     S
C463   O467    1.258   .     S
C463   O468    1.258   .     D
C464   C465    1.362   .     D
C464   S1566   1.710   .     S
C465   H466    1.140   .     S
C465   C633    1.395   .     S
O467   Zr1474  2.214   .     S
O468   Zr1375  2.277   .     S
C469   C470    1.480   .     S
C469   O473    1.258   .     S
C469   O474    1.258   .     D
C470   C471    1.362   .     D
C470   S1567   1.710   .     S
C471   H472    1.140   .     S
C471   C639    1.395   .     S
O473   Zr1475  2.214   1_565 S
O474   Zr1288  2.277   .     S
C475   C476    1.480   .     S
C475   O479    1.258   .     S
C475   O480    1.258   .     D
C476   C477    1.362   .     D
C476   S1568   1.710   .     S
C477   H478    1.140   .     S
C477   C645    1.395   .     S
O479   Zr1476  2.214   .     S
O480   Zr1291  2.277   .     S
C481   C482    1.480   .     S
C481   O485    1.258   .     S
C481   O486    1.258   .     D
C482   C483    1.362   .     D
C482   S1569   1.710   .     S
C483   H484    1.140   .     S
C483   C843    1.395   .     S
O485   Zr1469  2.214   .     S
O486   Zr1360  2.277   .     S
C487   C488    1.480   .     S
C487   O491    1.258   .     S
C487   O492    1.258   .     D
C488   C489    1.362   .     D
C488   S1570   1.710   .     S
C489   H490    1.140   .     S
C489   C849    1.395   .     S
O491   Zr1470  2.214   .     S
O492   Zr1309  2.277   .     S
C493   C494    1.480   .     S
C493   O497    1.258   .     S
C493   O498    1.258   .     D
C494   C495    1.362   .     D
C494   S1571   1.710   .     S
C495   H496    1.140   .     S
C495   C855    1.395   .     S
O497   Zr1471  2.214   .     S
O498   Zr1315  2.277   .     S
C499   C500    1.480   .     S
C499   O503    1.258   .     S
C499   O504    1.258   .     D
C500   C501    1.362   .     D
C500   S1572   1.710   .     S
C501   H502    1.140   .     S
C501   C861    1.395   .     S
O503   Zr1472  2.214   .     S
O504   Zr1312  2.277   .     S
C505   C506    1.480   .     S
C505   O509    1.258   .     S
C505   O510    1.258   .     D
C506   C507    1.362   .     D
C506   S1573   1.710   .     S
C507   H508    1.140   .     S
C507   C795    1.395   .     S
O509   Zr1465  2.214   .     S
O510   Zr1363  2.277   .     S
C511   C512    1.480   .     S
C511   O515    1.258   .     S
C511   O516    1.258   .     D
C512   C513    1.362   .     D
C512   S1574   1.710   .     S
C513   H514    1.140   .     S
C513   C801    1.395   .     S
O515   Zr1466  2.214   .     S
O516   Zr1303  2.277   .     S
C517   C518    1.480   .     S
C517   O521    1.258   .     S
C517   O522    1.258   .     D
C518   C519    1.362   .     D
C518   S1575   1.710   .     S
C519   H520    1.140   .     S
C519   C807    1.395   .     S
O521   Zr1467  2.214   .     S
O522   Zr1366  2.277   .     S
C523   C524    1.480   .     S
C523   O527    1.258   .     S
C523   O528    1.258   .     D
C524   C525    1.362   .     D
C524   S1576   1.710   .     S
C525   H526    1.140   .     S
C525   C813    1.395   .     S
O527   Zr1468  2.214   .     S
O528   Zr1306  2.277   .     S
C529   C530    1.480   .     S
C529   O533    1.258   .     S
C529   O534    1.258   .     D
C530   C531    1.362   .     D
C530   S1577   1.710   .     S
C531   H532    1.140   .     S
C531   C819    1.395   .     S
O533   Zr1457  2.214   1_655 D
O534   Zr1327  2.277   .     S
C535   C536    1.480   .     S
C535   O539    1.258   .     S
C535   O540    1.258   .     D
C536   C537    1.362   .     D
C536   S1578   1.710   .     S
C537   H538    1.140   .     S
C537   C825    1.395   .     S
O539   Zr1458  2.214   1_655 D
O540   Zr1324  2.277   .     S
C541   C542    1.480   .     S
C541   O545    1.258   .     S
C541   O546    1.258   .     D
C542   C543    1.362   .     D
C542   S1579   1.710   .     S
C543   H544    1.140   .     S
C543   C831    1.395   .     S
O545   Zr1459  2.214   .     S
O546   Zr1357  2.277   .     S
C547   C548    1.480   .     S
C547   O551    1.258   .     S
C547   O552    1.258   .     D
C548   C549    1.362   .     D
C548   S1580   1.710   .     S
C549   H550    1.140   .     S
C549   C837    1.395   .     S
O551   Zr1460  2.214   .     S
O552   Zr1330  2.277   .     S
C553   C554    1.480   .     S
C553   O557    1.258   .     S
C553   O558    1.258   .     D
C554   C555    1.362   .     D
C554   S1581   1.710   .     S
C555   H556    1.140   .     S
C555   C771    1.395   .     S
O557   Zr1461  2.214   1_655 S
O558   Zr1351  2.277   .     S
C559   C560    1.480   .     S
C559   O563    1.258   .     S
C559   O564    1.258   .     D
C560   C561    1.362   .     D
C560   S1582   1.710   .     S
C561   H562    1.140   .     S
C561   C777    1.395   .     S
O563   Zr1462  2.214   1_655 S
O564   Zr1318  2.277   .     S
C565   C566    1.480   .     S
C565   O569    1.258   .     S
C565   O570    1.258   .     D
C566   C567    1.362   .     D
C566   S1583   1.710   .     S
C567   H568    1.140   .     S
C567   C783    1.395   .     S
O569   Zr1463  2.214   .     S
O570   Zr1354  2.277   .     S
C571   C572    1.480   .     S
C571   O575    1.258   .     S
C571   O576    1.258   .     D
C572   C573    1.362   .     D
C572   S1584   1.710   .     S
C573   H574    1.140   .     S
C573   C789    1.395   .     S
O575   Zr1464  2.214   .     S
O576   Zr1321  2.277   .     S
C577   C578    1.480   .     S
C577   O581    1.258   .     S
C577   O582    1.258   .     D
C578   C579    1.362   .     D
C578   S1561   1.710   .     S
C579   H580    1.140   .     S
O581   Zr1445  2.214   1_556 S
O582   Zr1249  2.277   .     S
C583   C584    1.480   .     S
C583   O587    1.258   .     S
C583   O588    1.258   .     D
C584   C585    1.362   .     D
C584   S1562   1.710   .     S
C585   H586    1.140   .     S
O587   Zr1446  2.214   .     S
O588   Zr1252  2.277   .     S
C589   C590    1.480   .     S
C589   O593    1.258   .     S
C589   O594    1.258   .     D
C590   C591    1.362   .     D
C590   S1563   1.710   .     S
C591   H592    1.140   .     S
O593   Zr1447  2.214   .     S
O594   Zr1339  2.277   .     S
C595   C596    1.480   .     S
C595   O599    1.258   .     S
C595   O600    1.258   .     D
C596   C597    1.362   .     D
C596   S1564   1.710   .     S
C597   H598    1.140   .     S
O599   Zr1448  2.214   1_556 S
O600   Zr1255  2.277   .     S
C601   C602    1.480   .     S
C601   O605    1.258   .     S
C601   O606    1.258   .     D
C602   C603    1.362   .     D
C602   S1553   1.710   .     S
C603   H604    1.140   .     S
O605   Zr1441  2.214   1_556 S
O606   Zr1243  2.277   .     S
C607   C608    1.480   .     S
C607   O611    1.258   .     S
C607   O612    1.258   .     D
C608   C609    1.362   .     D
C608   S1554   1.710   .     S
C609   H610    1.140   .     S
O611   Zr1442  2.214   .     S
O612   Zr1246  2.277   .     S
C613   C614    1.480   .     S
C613   O617    1.258   .     S
C613   O618    1.258   .     D
C614   C615    1.362   .     D
C614   S1555   1.710   .     S
C615   H616    1.140   .     S
O617   Zr1443  2.214   .     S
O618   Zr1336  2.277   .     S
C619   C620    1.480   .     S
C619   O623    1.258   .     S
C619   O624    1.258   .     D
C620   C621    1.362   .     D
C620   S1556   1.710   .     S
C621   H622    1.140   .     S
O623   Zr1444  2.214   1_556 S
O624   Zr1333  2.277   .     S
C625   C626    1.480   .     S
C625   O629    1.258   .     S
C625   O630    1.258   .     D
C626   C627    1.362   .     D
C626   S1565   1.710   .     S
C627   H628    1.140   .     S
O629   Zr1453  2.214   .     S
O630   Zr1258  2.277   .     S
C631   C632    1.480   .     S
C631   O635    1.258   .     S
C631   O636    1.258   .     D
C632   C633    1.362   .     D
C632   S1566   1.710   .     S
C633   H634    1.140   .     S
O635   Zr1454  2.214   .     S
O636   Zr1261  2.277   .     S
C637   C638    1.480   .     S
C637   O641    1.258   .     S
C637   O642    1.258   .     D
C638   C639    1.362   .     D
C638   S1567   1.710   .     S
C639   H640    1.140   .     S
O641   Zr1455  2.214   .     S
O642   Zr1348  2.277   .     S
C643   C644    1.480   .     S
C643   O647    1.258   .     S
C643   O648    1.258   .     D
C644   C645    1.362   .     D
C644   S1568   1.710   .     S
C645   H646    1.140   .     S
O647   Zr1456  2.214   .     S
O648   Zr1345  2.277   .     S
C649   C650    1.480   .     S
C649   O653    1.258   .     S
C649   O654    1.258   .     D
C650   C651    1.362   .     D
C650   S1557   1.710   .     S
C651   H652    1.140   .     S
O653   Zr1449  2.214   .     S
O654   Zr1264  2.277   .     S
C655   C656    1.480   .     S
C655   O659    1.258   .     S
C655   O660    1.258   .     D
C656   C657    1.362   .     D
C656   S1558   1.710   .     S
C657   H658    1.140   .     S
O659   Zr1450  2.214   .     S
O660   Zr1267  2.277   .     S
C661   C662    1.480   .     S
C661   O665    1.258   .     S
C661   O666    1.258   .     D
C662   C663    1.362   .     D
C662   S1559   1.710   .     S
C663   H664    1.140   .     S
O665   Zr1451  2.214   .     S
O666   Zr1270  2.277   .     S
C667   C668    1.480   .     S
C667   O671    1.258   .     S
C667   O672    1.258   .     D
C668   C669    1.362   .     D
C668   S1560   1.710   .     S
C669   H670    1.140   .     S
O671   Zr1452  2.214   .     S
O672   Zr1342  2.277   .     S
C673   C674    1.480   .     S
C673   O677    1.258   .     S
C673   O678    1.258   .     D
C674   C675    1.362   .     D
C674   S1541   1.710   .     S
C675   H676    1.140   .     S
O677   Zr1461  2.214   1_655 S
O678   Zr1324  2.277   .     S
C679   C680    1.480   .     S
C679   O683    1.258   .     S
C679   O684    1.258   .     D
C680   C681    1.362   .     D
C680   S1542   1.710   .     S
C681   H682    1.140   .     S
O683   Zr1462  2.214   1_655 D
O684   Zr1327  2.277   .     S
C685   C686    1.480   .     S
C685   O689    1.258   .     S
C685   O690    1.258   .     D
C686   C687    1.362   .     D
C686   S1543   1.710   .     S
C687   H688    1.140   .     S
O689   Zr1463  2.214   .     S
O690   Zr1330  2.277   .     S
C691   C692    1.480   .     S
C691   O695    1.258   .     S
C691   O696    1.258   .     D
C692   C693    1.362   .     D
C692   S1544   1.710   .     S
C693   H694    1.140   .     S
O695   Zr1464  2.214   .     S
O696   Zr1357  2.277   .     S
C697   C698    1.480   .     S
C697   O701    1.258   .     S
C697   O702    1.258   .     D
C698   C699    1.362   .     D
C698   S1549   1.710   .     S
C699   H700    1.140   .     S
O701   Zr1457  2.214   1_655 D
O702   Zr1318  2.277   .     S
C703   C704    1.480   .     S
C703   O707    1.258   .     S
C703   O708    1.258   .     D
C704   C705    1.362   .     D
C704   S1550   1.710   .     S
C705   H706    1.140   .     S
O707   Zr1458  2.214   1_655 S
O708   Zr1351  2.277   .     S
C709   C710    1.480   .     S
C709   O713    1.258   .     S
C709   O714    1.258   .     D
C710   C711    1.362   .     D
C710   S1551   1.710   .     S
C711   H712    1.140   .     S
O713   Zr1459  2.214   .     S
O714   Zr1321  2.277   .     S
C715   C716    1.480   .     S
C715   O719    1.258   .     S
C715   O720    1.258   .     D
C716   C717    1.362   .     D
C716   S1552   1.710   .     S
C717   H718    1.140   .     S
O719   Zr1460  2.214   .     S
O720   Zr1354  2.277   .     S
C721   C722    1.480   .     S
C721   O725    1.258   .     S
C721   O726    1.258   .     D
C722   C723    1.362   .     D
C722   S1537   1.710   .     S
C723   H724    1.140   .     S
O725   Zr1469  2.214   .     S
O726   Zr1303  2.277   .     S
C727   C728    1.480   .     S
C727   O731    1.258   .     S
C727   O732    1.258   .     D
C728   C729    1.362   .     D
C728   S1538   1.710   .     S
C729   H730    1.140   .     S
O731   Zr1470  2.214   .     S
O732   Zr1363  2.277   .     S
C733   C734    1.480   .     S
C733   O737    1.258   .     S
C733   O738    1.258   .     D
C734   C735    1.362   .     D
C734   S1539   1.710   .     S
C735   H736    1.140   .     S
O737   Zr1471  2.214   .     S
O738   Zr1306  2.277   .     S
C739   C740    1.480   .     S
C739   O743    1.258   .     S
C739   O744    1.258   .     D
C740   C741    1.362   .     D
C740   S1540   1.710   .     S
C741   H742    1.140   .     S
O743   Zr1472  2.214   .     S
O744   Zr1366  2.277   .     S
C745   C746    1.480   .     S
C745   O749    1.258   .     S
C745   O750    1.258   .     D
C746   C747    1.362   .     D
C746   S1545   1.710   .     S
C747   H748    1.140   .     S
O749   Zr1465  2.214   .     S
O750   Zr1309  2.277   .     S
C751   C752    1.480   .     S
C751   O755    1.258   .     S
C751   O756    1.258   .     D
C752   C753    1.362   .     D
C752   S1546   1.710   .     S
C753   H754    1.140   .     S
O755   Zr1466  2.214   .     S
O756   Zr1360  2.277   .     S
C757   C758    1.480   .     S
C757   O761    1.258   .     S
C757   O762    1.258   .     D
C758   C759    1.362   .     D
C758   S1547   1.710   .     S
C759   H760    1.140   .     S
O761   Zr1467  2.214   .     S
O762   Zr1312  2.277   .     S
C763   C764    1.480   .     S
C763   O767    1.258   .     S
C763   O768    1.258   .     D
C764   C765    1.362   .     D
C764   S1548   1.710   .     S
C765   H766    1.140   .     S
O767   Zr1468  2.214   .     S
O768   Zr1315  2.277   .     S
C769   C770    1.480   .     S
C769   O773    1.258   .     S
C769   O774    1.258   .     D
C770   C771    1.362   .     D
C770   S1581   1.710   .     S
C771   H772    1.140   .     S
O773   Zr1477  2.214   1_565 S
O774   Zr1288  2.277   .     S
C775   C776    1.480   .     S
C775   O779    1.258   .     S
C775   O780    1.258   .     D
C776   C777    1.362   .     D
C776   S1582   1.710   .     S
C777   H778    1.140   .     S
O779   Zr1478  2.214   .     S
O780   Zr1291  2.277   .     S
C781   C782    1.480   .     S
C781   O785    1.258   .     S
C781   O786    1.258   .     D
C782   C783    1.362   .     D
C782   S1583   1.710   .     S
C783   H784    1.140   .     S
O785   Zr1479  2.214   1_565 S
O786   Zr1294  2.277   .     S
C787   C788    1.480   .     S
C787   O791    1.258   .     S
C787   O792    1.258   .     D
C788   C789    1.362   .     D
C788   S1584   1.710   .     S
C789   H790    1.140   .     S
O791   Zr1480  2.214   .     S
O792   Zr1375  2.277   .     S
C793   C794    1.480   .     S
C793   O797    1.258   .     S
C793   O798    1.258   .     D
C794   C795    1.362   .     D
C794   S1573   1.710   .     S
C795   H796    1.140   .     S
O797   Zr1473  2.214   1_565 S
O798   Zr1297  2.277   .     S
C799   C800    1.480   .     S
C799   O803    1.258   .     S
C799   O804    1.258   .     D
C800   C801    1.362   .     D
C800   S1574   1.710   .     S
C801   H802    1.140   .     S
O803   Zr1474  2.214   .     S
O804   Zr1300  2.277   .     S
C805   C806    1.480   .     S
C805   O809    1.258   .     S
C805   O810    1.258   .     D
C806   C807    1.362   .     D
C806   S1575   1.710   .     S
C807   H808    1.140   .     S
O809   Zr1475  2.214   1_565 S
O810   Zr1369  2.277   .     S
C811   C812    1.480   .     S
C811   O815    1.258   .     S
C811   O816    1.258   .     D
C812   C813    1.362   .     D
C812   S1576   1.710   .     S
C813   H814    1.140   .     S
O815   Zr1476  2.214   .     S
O816   Zr1372  2.277   .     S
C817   C818    1.480   .     S
C817   O821    1.258   .     S
C817   O822    1.258   .     D
C818   C819    1.362   .     D
C818   S1577   1.710   .     S
C819   H820    1.140   .     S
O821   Zr1485  2.214   .     S
O822   Zr1279  2.277   .     S
C823   C824    1.480   .     S
C823   O827    1.258   .     S
C823   O828    1.258   .     D
C824   C825    1.362   .     D
C824   S1578   1.710   .     S
C825   H826    1.140   .     S
O827   Zr1486  2.214   .     S
O828   Zr1282  2.277   .     S
C829   C830    1.480   .     S
C829   O833    1.258   .     S
C829   O834    1.258   .     D
C830   C831    1.362   .     D
C830   S1579   1.710   .     S
C831   H832    1.140   .     S
O833   Zr1487  2.214   .     S
O834   Zr1384  2.277   .     S
C835   C836    1.480   .     S
C835   O839    1.258   .     S
C835   O840    1.258   .     D
C836   C837    1.362   .     D
C836   S1580   1.710   .     S
C837   H838    1.140   .     S
O839   Zr1488  2.214   .     S
O840   Zr1285  2.277   .     S
C841   C842    1.480   .     S
C841   O845    1.258   .     S
C841   O846    1.258   .     D
C842   C843    1.362   .     D
C842   S1569   1.710   .     S
C843   H844    1.140   .     S
O845   Zr1481  2.214   .     S
O846   Zr1273  2.277   .     S
C847   C848    1.480   .     S
C847   O851    1.258   .     S
C847   O852    1.258   .     D
C848   C849    1.362   .     D
C848   S1570   1.710   .     S
C849   H850    1.140   .     S
O851   Zr1482  2.214   .     S
O852   Zr1276  2.277   .     S
C853   C854    1.480   .     S
C853   O857    1.258   .     S
C853   O858    1.258   .     D
C854   C855    1.362   .     D
C854   S1571   1.710   .     S
C855   H856    1.140   .     S
O857   Zr1483  2.214   .     S
O858   Zr1378  2.277   .     S
C859   C860    1.480   .     S
C859   O863    1.258   .     S
C859   O864    1.258   .     D
C860   C861    1.362   .     D
C860   S1572   1.710   .     S
C861   H862    1.140   .     S
O863   Zr1484  2.214   .     S
O864   Zr1381  2.277   .     S
C865   C866    1.480   .     S
C865   O869    1.258   .     S
C865   O870    1.258   .     D
C866   C867    1.362   .     D
C866   S1513   1.710   .     S
C867   H868    1.140   .     S
O869   Zr1445  2.214   .     S
O870   Zr1159  2.277   .     S
C871   C872    1.480   .     S
C871   O875    1.258   .     S
C871   O876    1.258   .     D
C872   C873    1.362   .     D
C872   S1514   1.710   .     S
C873   H874    1.140   .     S
O875   Zr1446  2.214   .     S
O876   Zr1162  2.277   .     S
C877   C878    1.480   .     S
C877   O881    1.258   .     S
C877   O882    1.258   .     D
C878   C879    1.362   .     D
C878   S1515   1.710   .     S
C879   H880    1.140   .     S
O881   Zr1447  2.214   .     S
O882   Zr1393  2.277   .     S
C883   C884    1.480   .     S
C883   O887    1.258   .     S
C883   O888    1.258   .     D
C884   C885    1.362   .     D
C884   S1516   1.710   .     S
C885   H886    1.140   .     S
O887   Zr1448  2.214   .     S
O888   Zr1165  2.277   .     S
C889   C890    1.480   .     S
C889   O893    1.258   .     S
C889   O894    1.258   .     D
C890   C891    1.362   .     D
C890   S1505   1.710   .     S
C891   H892    1.140   .     S
O893   Zr1441  2.214   .     S
O894   Zr1153  2.277   .     S
C895   C896    1.480   .     S
C895   O899    1.258   .     S
C895   O900    1.258   .     D
C896   C897    1.362   .     D
C896   S1506   1.710   .     S
C897   H898    1.140   .     S
O899   Zr1442  2.214   .     S
O900   Zr1156  2.277   .     S
C901   C902    1.480   .     S
C901   O905    1.258   .     S
C901   O906    1.258   .     D
C902   C903    1.362   .     D
C902   S1507   1.710   .     S
C903   H904    1.140   .     S
O905   Zr1443  2.214   .     S
O906   Zr1390  2.277   .     S
C907   C908    1.480   .     S
C907   O911    1.258   .     S
C907   O912    1.258   .     D
C908   C909    1.362   .     D
C908   S1508   1.710   .     S
C909   H910    1.140   .     S
O911   Zr1444  2.214   .     S
O912   Zr1387  2.277   .     S
C913   C914    1.480   .     S
C913   O917    1.258   .     S
C913   O918    1.258   .     D
C914   C915    1.362   .     D
C914   S1517   1.710   .     S
C915   H916    1.140   .     S
O917   Zr1449  2.214   1_556 S
O918   Zr1168  2.277   .     S
C919   C920    1.480   .     S
C919   O923    1.258   .     S
C919   O924    1.258   .     D
C920   C921    1.362   .     D
C920   S1518   1.710   .     S
C921   H922    1.140   .     S
O923   Zr1450  2.214   .     S
O924   Zr1171  2.277   .     S
C925   C926    1.480   .     S
C925   O929    1.258   .     S
C925   O930    1.258   .     D
C926   C927    1.362   .     D
C926   S1519   1.710   .     S
C927   H928    1.140   .     S
O929   Zr1451  2.214   .     S
O930   Zr1174  2.277   .     S
C931   C932    1.480   .     S
C931   O935    1.258   .     S
C931   O936    1.258   .     D
C932   C933    1.362   .     D
C932   S1520   1.710   .     S
C933   H934    1.140   .     S
O935   Zr1452  2.214   1_556 S
O936   Zr1402  2.277   .     S
C937   C938    1.480   .     S
C937   O941    1.258   .     S
C937   O942    1.258   .     D
C938   C939    1.362   .     D
C938   S1509   1.710   .     S
C939   H940    1.140   .     S
O941   Zr1453  2.214   1_556 D
O942   Zr1177  2.277   .     S
C943   C944    1.480   .     S
C943   O947    1.258   .     S
C943   O948    1.258   .     D
C944   C945    1.362   .     D
C944   S1510   1.710   .     S
C945   H946    1.140   .     S
O947   Zr1454  2.214   .     S
O948   Zr1180  2.277   .     S
C949   C950    1.480   .     S
C949   O953    1.258   .     S
C949   O954    1.258   .     D
C950   C951    1.362   .     D
C950   S1511   1.710   .     S
C951   H952    1.140   .     S
O953   Zr1455  2.214   .     S
O954   Zr1399  2.277   .     S
C955   C956    1.480   .     S
C955   O959    1.258   .     S
C955   O960    1.258   .     D
C956   C957    1.362   .     D
C956   S1512   1.710   .     S
C957   H958    1.140   .     S
O959   Zr1456  2.214   1_556 D
O960   Zr1396  2.277   .     S
C961   C962    1.480   .     S
C961   O965    1.258   .     S
C961   O966    1.258   .     D
C962   C963    1.362   .     D
C962   S1493   1.710   .     S
C963   H964    1.140   .     S
O965   Zr1485  2.214   1_565 S
O966   Zr1234  2.277   .     S
C967   C968    1.480   .     S
C967   O971    1.258   .     S
C967   O972    1.258   .     D
C968   C969    1.362   .     D
C968   S1494   1.710   .     S
C969   H970    1.140   .     S
O971   Zr1486  2.214   .     S
O972   Zr1237  2.277   .     S
C973   C974    1.480   .     S
C973   O977    1.258   .     S
C973   O978    1.258   .     D
C974   C975    1.362   .     D
C974   S1495   1.710   .     S
C975   H976    1.140   .     S
O977   Zr1487  2.214   1_565 S
O978   Zr1411  2.277   .     S
C979   C980    1.480   .     S
C979   O983    1.258   .     S
C979   O984    1.258   .     D
C980   C981    1.362   .     D
C980   S1496   1.710   .     S
C981   H982    1.140   .     S
O983   Zr1488  2.214   .     S
O984   Zr1240  2.277   .     S
C985   C986    1.480   .     S
C985   O989    1.258   .     S
C985   O990    1.258   .     D
C986   C987    1.362   .     D
C986   S1501   1.710   .     S
C987   H988    1.140   .     S
O989   Zr1481  2.214   1_565 S
O990   Zr1228  2.277   .     S
C991   C992    1.480   .     S
C991   O995    1.258   .     S
C991   O996    1.258   .     D
C992   C993    1.362   .     D
C992   S1502   1.710   .     S
C993   H994    1.140   .     S
O995   Zr1482  2.214   .     S
O996   Zr1231  2.277   .     S
C997   C998    1.480   .     S
C997   O1001   1.258   .     S
C997   O1002   1.258   .     D
C998   C999    1.362   .     D
C998   S1503   1.710   .     S
C999   H1000   1.140   .     S
O1001  Zr1483  2.214   1_565 S
O1002  Zr1405  2.277   .     S
C1003  C1004   1.480   .     S
C1003  O1007   1.258   .     S
C1003  O1008   1.258   .     D
C1004  C1005   1.362   .     D
C1004  S1504   1.710   .     S
C1005  H1006   1.140   .     S
O1007  Zr1484  2.214   .     S
O1008  Zr1408  2.277   .     S
C1009  C1010   1.480   .     S
C1009  O1013   1.258   .     S
C1009  O1014   1.258   .     D
C1010  C1011   1.362   .     D
C1010  S1489   1.710   .     S
C1011  H1012   1.140   .     S
O1013  Zr1473  2.214   .     S
O1014  Zr1213  2.277   .     S
C1015  C1016   1.480   .     S
C1015  O1019   1.258   .     S
C1015  O1020   1.258   .     D
C1016  C1017   1.362   .     D
C1016  S1490   1.710   .     S
C1017  H1018   1.140   .     S
O1019  Zr1474  2.214   .     S
O1020  Zr1216  2.277   .     S
C1021  C1022   1.480   .     S
C1021  O1025   1.258   .     S
C1021  O1026   1.258   .     D
C1022  C1023   1.362   .     D
C1022  S1491   1.710   .     S
C1023  H1024   1.140   .     S
O1025  Zr1475  2.214   .     S
O1026  Zr1417  2.277   .     S
C1027  C1028   1.480   .     S
C1027  O1031   1.258   .     S
C1027  O1032   1.258   .     D
C1028  C1029   1.362   .     D
C1028  S1492   1.710   .     S
C1029  H1030   1.140   .     S
O1031  Zr1476  2.214   .     S
O1032  Zr1420  2.277   .     S
C1033  C1034   1.480   .     S
C1033  O1037   1.258   .     S
C1033  O1038   1.258   .     D
C1034  C1035   1.362   .     D
C1034  S1497   1.710   .     S
C1035  H1036   1.140   .     S
O1037  Zr1477  2.214   .     S
O1038  Zr1219  2.277   .     S
C1039  C1040   1.480   .     S
C1039  O1043   1.258   .     S
C1039  O1044   1.258   .     D
C1040  C1041   1.362   .     D
C1040  S1498   1.710   .     S
C1041  H1042   1.140   .     S
O1043  Zr1478  2.214   .     S
O1044  Zr1222  2.277   .     S
C1045  C1046   1.480   .     S
C1045  O1049   1.258   .     S
C1045  O1050   1.258   .     D
C1046  C1047   1.362   .     D
C1046  S1499   1.710   .     S
C1047  H1048   1.140   .     S
O1049  Zr1479  2.214   .     S
O1050  Zr1225  2.277   .     S
C1051  C1052   1.480   .     S
C1051  O1055   1.258   .     S
C1051  O1056   1.258   .     D
C1052  C1053   1.362   .     D
C1052  S1500   1.710   .     S
C1053  H1054   1.140   .     S
O1055  Zr1480  2.214   .     S
O1056  Zr1414  2.277   .     S
C1057  C1058   1.480   .     S
C1057  O1061   1.258   .     S
C1057  O1062   1.258   .     D
C1058  C1059   1.362   .     D
C1058  S1533   1.710   .     S
C1059  H1060   1.140   .     S
O1061  Zr1465  2.214   1_655 S
O1062  Zr1198  2.277   .     S
C1063  C1064   1.480   .     S
C1063  O1067   1.258   .     S
C1063  O1068   1.258   .     D
C1064  C1065   1.362   .     D
C1064  S1534   1.710   .     S
C1065  H1066   1.140   .     S
O1067  Zr1466  2.214   1_655 S
O1068  Zr1429  2.277   .     S
C1069  C1070   1.480   .     S
C1069  O1073   1.258   .     S
C1069  O1074   1.258   .     D
C1070  C1071   1.362   .     D
C1070  S1535   1.710   .     S
C1071  H1072   1.140   .     S
O1073  Zr1467  2.214   .     S
O1074  Zr1201  2.277   .     S
C1075  C1076   1.480   .     S
C1075  O1079   1.258   .     S
C1075  O1080   1.258   .     D
C1076  C1077   1.362   .     D
C1076  S1536   1.710   .     S
C1077  H1078   1.140   .     S
O1079  Zr1468  2.214   .     S
O1080  Zr1204  2.277   .     S
C1081  C1082   1.480   .     S
C1081  O1085   1.258   .     S
C1081  O1086   1.258   .     D
C1082  C1083   1.362   .     D
C1082  S1525   1.710   .     S
C1083  H1084   1.140   .     S
O1085  Zr1469  2.214   1_655 S
O1086  Zr1207  2.277   .     S
C1087  C1088   1.480   .     S
C1087  O1091   1.258   .     S
C1087  O1092   1.258   .     D
C1088  C1089   1.362   .     D
C1088  S1526   1.710   .     S
C1089  H1090   1.140   .     S
O1091  Zr1470  2.214   1_655 D
O1092  Zr1423  2.277   .     S
C1093  C1094   1.480   .     S
C1093  O1097   1.258   .     S
C1093  O1098   1.258   .     D
C1094  C1095   1.362   .     D
C1094  S1527   1.710   .     S
C1095  H1096   1.140   .     S
O1097  Zr1471  2.214   .     S
O1098  Zr1210  2.277   .     S
C1099  C1100   1.480   .     S
C1099  O1103   1.258   .     S
C1099  O1104   1.258   .     D
C1100  C1101   1.362   .     D
C1100  S1528   1.710   .     S
C1101  H1102   1.140   .     S
O1103  Zr1472  2.214   .     S
O1104  Zr1426  2.277   .     S
C1105  C1106   1.480   .     S
C1105  O1109   1.258   .     S
C1105  O1110   1.258   .     D
C1106  C1107   1.362   .     D
C1106  S1529   1.710   .     S
C1107  H1108   1.140   .     S
O1109  Zr1461  2.214   .     S
O1110  Zr1189  2.277   .     S
C1111  C1112   1.480   .     S
C1111  O1115   1.258   .     S
C1111  O1116   1.258   .     D
C1112  C1113   1.362   .     D
C1112  S1530   1.710   .     S
C1113  H1114   1.140   .     S
O1115  Zr1462  2.214   .     S
O1116  Zr1192  2.277   .     S
C1117  C1118   1.480   .     S
C1117  O1121   1.258   .     S
C1117  O1122   1.258   .     D
C1118  C1119   1.362   .     D
C1118  S1531   1.710   .     S
C1119  H1120   1.140   .     S
O1121  Zr1463  2.214   .     S
O1122  Zr1195  2.277   .     S
C1123  C1124   1.480   .     S
C1123  O1127   1.258   .     S
C1123  O1128   1.258   .     D
C1124  C1125   1.362   .     D
C1124  S1532   1.710   .     S
C1125  H1126   1.140   .     S
O1127  Zr1464  2.214   .     S
O1128  Zr1438  2.277   .     S
C1129  C1130   1.480   .     S
C1129  O1133   1.258   .     S
C1129  O1134   1.258   .     D
C1130  C1131   1.362   .     D
C1130  S1521   1.710   .     S
C1131  H1132   1.140   .     S
O1133  Zr1457  2.214   .     S
O1134  Zr1183  2.277   .     S
C1135  C1136   1.480   .     S
C1135  O1139   1.258   .     S
C1135  O1140   1.258   .     D
C1136  C1137   1.362   .     D
C1136  S1522   1.710   .     S
C1137  H1138   1.140   .     S
O1139  Zr1458  2.214   .     S
O1140  Zr1432  2.277   .     S
C1141  C1142   1.480   .     S
C1141  O1145   1.258   .     S
C1141  O1146   1.258   .     D
C1142  C1143   1.362   .     D
C1142  S1523   1.710   .     S
C1143  H1144   1.140   .     S
O1145  Zr1459  2.214   .     S
O1146  Zr1186  2.277   .     S
C1147  C1148   1.480   .     S
C1147  O1151   1.258   .     S
C1147  O1152   1.258   .     D
C1148  C1149   1.362   .     D
C1148  S1524   1.710   .     S
C1149  H1150   1.140   .     S
O1151  Zr1460  2.214   .     S
O1152  Zr1435  2.277   .     S
Zr1153 O1154   2.183   .     S
Zr1153 O1155   2.165   .     S
Zr1153 O1585   2.132   .     S
Zr1153 O1592   2.132   .     S
Zr1153 O1681   2.140   .     S
Zr1153 O1736   2.140   .     S
O1154  H1777   1.110   .     S
O1155  H1778   1.110   .     S
Zr1156 O1157   2.183   .     S
Zr1156 O1158   2.165   .     S
Zr1156 O1586   2.132   .     S
Zr1156 O1591   2.132   .     S
Zr1156 O1682   2.140   .     S
Zr1156 O1735   2.140   .     S
O1157  H1779   1.110   .     S
O1158  H1780   1.110   .     S
Zr1159 O1160   2.183   .     S
Zr1159 O1161   2.165   .     S
Zr1159 O1589   2.132   .     S
Zr1159 O1588   2.132   .     S
Zr1159 O1685   2.140   .     S
Zr1159 O1732   2.140   .     S
O1160  H1781   1.110   .     S
O1161  H1782   1.110   .     S
Zr1162 O1163   2.183   .     S
Zr1162 O1164   2.165   .     S
Zr1162 O1590   2.132   .     S
Zr1162 O1587   2.132   .     S
Zr1162 O1686   2.140   .     S
Zr1162 O1731   2.140   .     S
O1163  H1783   1.110   .     S
O1164  H1784   1.110   .     S
Zr1165 O1166   2.183   .     S
Zr1165 O1167   2.165   .     S
Zr1165 O1585   2.132   .     S
Zr1165 O1592   2.132   .     S
Zr1165 O1729   2.140   .     S
Zr1165 O1688   2.140   .     S
O1166  H1785   1.110   .     S
O1167  H1786   1.110   .     S
Zr1168 O1169   2.183   .     S
Zr1168 O1170   2.165   .     S
Zr1168 O1593   2.132   .     S
Zr1168 O1600   2.132   .     S
Zr1168 O1689   2.140   1_556 D
Zr1168 O1740   2.140   1_556 S
O1169  H1787   1.110   .     S
O1170  H1788   1.110   .     S
Zr1171 O1172   2.183   .     S
Zr1171 O1173   2.165   .     S
Zr1171 O1594   2.132   .     S
Zr1171 O1599   2.132   .     S
Zr1171 O1690   2.140   .     S
Zr1171 O1739   2.140   .     S
O1172  H1789   1.110   .     S
O1173  H1790   1.110   .     S
Zr1174 O1175   2.183   .     S
Zr1174 O1176   2.165   .     S
Zr1174 O1598   2.132   .     S
Zr1174 O1595   2.132   .     S
Zr1174 O1738   2.140   .     S
Zr1174 O1691   2.140   .     S
O1175  H1791   1.110   .     S
O1176  H1792   1.110   .     S
Zr1177 O1178   2.183   .     S
Zr1177 O1179   2.165   .     S
Zr1177 O1597   2.132   .     S
Zr1177 O1596   2.132   .     S
Zr1177 O1693   2.140   1_556 S
Zr1177 O1744   2.140   1_556 S
O1178  H1793   1.110   .     S
O1179  H1794   1.110   .     S
Zr1180 O1181   2.183   .     S
Zr1180 O1182   2.165   .     S
Zr1180 O1598   2.132   .     S
Zr1180 O1595   2.132   .     S
Zr1180 O1694   2.140   .     S
Zr1180 O1743   2.140   .     S
O1181  H1795   1.110   .     S
O1182  H1796   1.110   .     S
Zr1183 O1184   2.183   .     S
Zr1183 O1185   2.165   .     S
Zr1183 O1601   2.132   .     S
Zr1183 O1606   2.132   .     S
Zr1183 O1697   2.140   .     S
Zr1183 O1774   2.140   .     S
O1184  H1797   1.110   .     S
O1185  H1798   1.110   .     S
Zr1186 O1187   2.183   .     S
Zr1186 O1188   2.165   .     S
Zr1186 O1603   2.132   .     S
Zr1186 O1608   2.132   .     S
Zr1186 O1699   2.140   .     S
Zr1186 O1776   2.140   .     S
O1187  H1799   1.110   .     S
O1188  H1800   1.110   .     S
Zr1189 O1190   2.183   .     S
Zr1189 O1191   2.165   .     S
Zr1189 O1605   2.132   .     S
Zr1189 O1602   2.132   .     S
Zr1189 O1701   2.140   .     S
Zr1189 O1770   2.140   .     S
O1190  H1801   1.110   .     S
O1191  H1802   1.110   .     S
Zr1192 O1193   2.183   .     S
Zr1192 O1194   2.165   .     S
Zr1192 O1601   2.132   .     S
Zr1192 O1606   2.132   .     S
Zr1192 O1769   2.140   .     S
Zr1192 O1702   2.140   .     S
O1193  H1803   1.110   .     S
O1194  H1804   1.110   .     S
Zr1195 O1196   2.183   .     S
Zr1195 O1197   2.165   .     S
Zr1195 O1607   2.132   .     S
Zr1195 O1604   2.132   .     S
Zr1195 O1703   2.140   .     S
Zr1195 O1772   2.140   .     S
O1196  H1805   1.110   .     S
O1197  H1806   1.110   .     S
Zr1198 O1199   2.183   .     S
Zr1198 O1200   2.165   .     S
Zr1198 O1609   2.132   .     S
Zr1198 O1614   2.132   .     S
Zr1198 O1705   2.140   1_655 S
Zr1198 O1762   2.140   1_655 S
O1199  H1807   1.110   .     S
O1200  H1808   1.110   .     S
Zr1201 O1202   2.183   .     S
Zr1201 O1203   2.165   .     S
Zr1201 O1611   2.132   .     S
Zr1201 O1616   2.132   .     S
Zr1201 O1707   2.140   .     S
Zr1201 O1764   2.140   .     S
O1202  H1809   1.110   .     S
O1203  H1810   1.110   .     S
Zr1204 O1205   2.183   .     S
Zr1204 O1206   2.165   .     S
Zr1204 O1615   2.132   .     S
Zr1204 O1612   2.132   .     S
Zr1204 O1763   2.140   .     S
Zr1204 O1708   2.140   .     S
O1205  H1811   1.110   .     S
O1206  H1812   1.110   .     S
Zr1207 O1208   2.183   .     S
Zr1207 O1209   2.165   .     S
Zr1207 O1613   2.132   .     S
Zr1207 O1610   2.132   .     S
Zr1207 O1709   2.140   1_655 S
Zr1207 O1766   2.140   1_655 S
O1208  H1813   1.110   .     S
O1209  H1814   1.110   .     S
Zr1210 O1211   2.183   .     S
Zr1210 O1212   2.165   .     S
Zr1210 O1615   2.132   .     S
Zr1210 O1612   2.132   .     S
Zr1210 O1711   2.140   .     S
Zr1210 O1768   2.140   .     S
O1211  H1815   1.110   .     S
O1212  H1816   1.110   .     S
Zr1213 O1214   2.183   .     S
Zr1213 O1215   2.165   .     S
Zr1213 O1617   2.132   .     S
Zr1213 O1623   2.132   .     S
Zr1213 O1713   2.140   .     S
Zr1213 O1755   2.140   .     S
O1214  H1817   1.110   .     S
O1215  H1818   1.110   .     S
Zr1216 O1217   2.183   .     S
Zr1216 O1218   2.165   .     S
Zr1216 O1618   2.132   .     S
Zr1216 O1624   2.132   .     S
Zr1216 O1714   2.140   .     S
Zr1216 O1756   2.140   .     S
O1217  H1819   1.110   .     S
O1218  H1820   1.110   .     S
Zr1219 O1220   2.183   .     S
Zr1219 O1221   2.165   .     S
Zr1219 O1621   2.132   .     S
Zr1219 O1619   2.132   .     S
Zr1219 O1717   2.140   .     S
Zr1219 O1759   2.140   .     S
O1220  H1821   1.110   .     S
O1221  H1822   1.110   .     S
Zr1222 O1223   2.183   .     S
Zr1222 O1224   2.165   .     S
Zr1222 O1622   2.132   .     S
Zr1222 O1620   2.132   .     S
Zr1222 O1718   2.140   .     S
Zr1222 O1760   2.140   .     S
O1223  H1823   1.110   .     S
O1224  H1824   1.110   .     S
Zr1225 O1226   2.183   .     S
Zr1225 O1227   2.165   .     S
Zr1225 O1617   2.132   .     S
Zr1225 O1623   2.132   .     S
Zr1225 O1757   2.140   .     S
Zr1225 O1719   2.140   .     S
O1226  H1825   1.110   .     S
O1227  H1826   1.110   .     S
Zr1228 O1229   2.183   .     S
Zr1228 O1230   2.165   .     S
Zr1228 O1625   2.132   .     S
Zr1228 O1631   2.132   .     S
Zr1228 O1721   2.140   1_565 D
Zr1228 O1751   2.140   1_565 D
O1229  H1827   1.110   .     S
O1230  H1828   1.110   .     S
Zr1231 O1232   2.183   .     S
Zr1231 O1233   2.165   .     S
Zr1231 O1626   2.132   .     S
Zr1231 O1632   2.132   .     S
Zr1231 O1722   2.140   .     S
Zr1231 O1752   2.140   .     S
O1232  H1829   1.110   .     S
O1233  H1830   1.110   .     S
Zr1234 O1235   2.183   .     S
Zr1234 O1236   2.165   .     S
Zr1234 O1629   2.132   .     S
Zr1234 O1627   2.132   .     S
Zr1234 O1725   2.140   1_565 S
Zr1234 O1747   2.140   1_565 S
O1235  H1831   1.110   .     S
O1236  H1832   1.110   .     S
Zr1237 O1238   2.183   .     S
Zr1237 O1239   2.165   .     S
Zr1237 O1630   2.132   .     S
Zr1237 O1628   2.132   .     S
Zr1237 O1726   2.140   .     S
Zr1237 O1748   2.140   .     S
O1238  H1833   1.110   .     S
O1239  H1834   1.110   .     S
Zr1240 O1241   2.183   .     S
Zr1240 O1242   2.165   .     S
Zr1240 O1626   2.132   .     S
Zr1240 O1632   2.132   .     S
Zr1240 O1746   2.140   .     S
Zr1240 O1728   2.140   .     S
O1241  H1835   1.110   .     S
O1242  H1836   1.110   .     S
Zr1243 O1244   2.183   .     S
Zr1243 O1245   2.165   .     S
Zr1243 O1633   2.132   .     S
Zr1243 O1640   2.132   .     S
Zr1243 O1729   2.140   1_556 S
Zr1243 O1688   2.140   1_556 S
O1244  H1837   1.110   .     S
O1245  H1838   1.110   .     S
Zr1246 O1247   2.183   .     S
Zr1246 O1248   2.165   .     S
Zr1246 O1634   2.132   .     S
Zr1246 O1639   2.132   .     S
Zr1246 O1730   2.140   .     S
Zr1246 O1687   2.140   .     S
O1247  H1839   1.110   .     S
O1248  H1840   1.110   .     S
Zr1249 O1250   2.183   .     S
Zr1249 O1251   2.165   .     S
Zr1249 O1637   2.132   .     S
Zr1249 O1636   2.132   .     S
Zr1249 O1733   2.140   1_556 S
Zr1249 O1684   2.140   1_556 S
O1250  H1841   1.110   .     S
O1251  H1842   1.110   .     S
Zr1252 O1253   2.183   .     S
Zr1252 O1254   2.165   .     S
Zr1252 O1638   2.132   .     S
Zr1252 O1635   2.132   .     S
Zr1252 O1734   2.140   .     S
Zr1252 O1683   2.140   .     S
O1253  H1843   1.110   .     S
O1254  H1844   1.110   .     S
Zr1255 O1256   2.183   .     S
Zr1255 O1257   2.165   .     S
Zr1255 O1633   2.132   .     S
Zr1255 O1640   2.132   .     S
Zr1255 O1681   2.140   1_556 S
Zr1255 O1736   2.140   1_556 D
O1256  H1845   1.110   .     S
O1257  H1846   1.110   .     S
Zr1258 O1259   2.183   .     S
Zr1258 O1260   2.165   .     S
Zr1258 O1641   2.132   .     S
Zr1258 O1648   2.132   .     S
Zr1258 O1737   2.140   .     S
Zr1258 O1692   2.140   .     S
O1259  H1847   1.110   .     S
O1260  H1848   1.110   .     S
Zr1261 O1262   2.183   .     S
Zr1261 O1263   2.165   .     S
Zr1261 O1642   2.132   .     S
Zr1261 O1647   2.132   .     S
Zr1261 O1738   2.140   .     S
Zr1261 O1691   2.140   .     S
O1262  H1849   1.110   .     S
O1263  H1850   1.110   .     S
Zr1264 O1265   2.183   .     S
Zr1264 O1266   2.165   .     S
Zr1264 O1645   2.132   .     S
Zr1264 O1644   2.132   .     S
Zr1264 O1741   2.140   .     S
Zr1264 O1696   2.140   .     S
O1265  H1851   1.110   .     S
O1266  H1852   1.110   .     S
Zr1267 O1268   2.183   .     S
Zr1267 O1269   2.165   .     S
Zr1267 O1646   2.132   .     S
Zr1267 O1643   2.132   .     S
Zr1267 O1742   2.140   .     S
Zr1267 O1695   2.140   .     S
O1268  H1853   1.110   .     S
O1269  H1854   1.110   .     S
Zr1270 O1271   2.183   .     S
Zr1270 O1272   2.165   .     S
Zr1270 O1642   2.132   .     S
Zr1270 O1647   2.132   .     S
Zr1270 O1694   2.140   .     S
Zr1270 O1743   2.140   .     S
O1271  H1855   1.110   .     S
O1272  H1856   1.110   .     S
Zr1273 O1274   2.183   .     S
Zr1273 O1275   2.165   .     S
Zr1273 O1649   2.132   .     S
Zr1273 O1655   2.132   .     S
Zr1273 O1745   2.140   .     S
Zr1273 O1727   2.140   .     S
O1274  H1857   1.110   .     S
O1275  H1858   1.110   .     S
Zr1276 O1277   2.183   .     S
Zr1276 O1278   2.165   .     S
Zr1276 O1650   2.132   .     S
Zr1276 O1656   2.132   .     S
Zr1276 O1746   2.140   .     S
Zr1276 O1728   2.140   .     S
O1277  H1859   1.110   .     S
O1278  H1860   1.110   .     S
Zr1279 O1280   2.183   .     S
Zr1279 O1281   2.165   .     S
Zr1279 O1653   2.132   .     S
Zr1279 O1651   2.132   .     S
Zr1279 O1749   2.140   .     S
Zr1279 O1723   2.140   .     S
O1280  H1861   1.110   .     S
O1281  H1862   1.110   .     S
Zr1282 O1283   2.183   .     S
Zr1282 O1284   2.165   .     S
Zr1282 O1654   2.132   .     S
Zr1282 O1652   2.132   .     S
Zr1282 O1750   2.140   .     S
Zr1282 O1724   2.140   .     S
O1283  H1863   1.110   .     S
O1284  H1864   1.110   .     S
Zr1285 O1286   2.183   .     S
Zr1285 O1287   2.165   .     S
Zr1285 O1650   2.132   .     S
Zr1285 O1656   2.132   .     S
Zr1285 O1722   2.140   .     S
Zr1285 O1752   2.140   .     S
O1286  H1865   1.110   .     S
O1287  H1866   1.110   .     S
Zr1288 O1289   2.183   .     S
Zr1288 O1290   2.165   .     S
Zr1288 O1657   2.132   .     S
Zr1288 O1663   2.132   .     S
Zr1288 O1753   2.140   1_565 D
Zr1288 O1715   2.140   1_565 S
O1289  H1867   1.110   .     S
O1290  H1868   1.110   .     S
Zr1291 O1292   2.183   .     S
Zr1291 O1293   2.165   .     S
Zr1291 O1658   2.132   .     S
Zr1291 O1664   2.132   .     S
Zr1291 O1754   2.140   .     S
Zr1291 O1716   2.140   .     S
O1292  H1869   1.110   .     S
O1293  H1870   1.110   .     S
Zr1294 O1295   2.183   .     S
Zr1294 O1296   2.165   .     S
Zr1294 O1661   2.132   .     S
Zr1294 O1659   2.132   .     S
Zr1294 O1713   2.140   1_565 S
Zr1294 O1755   2.140   1_565 S
O1295  H1871   1.110   .     S
O1296  H1872   1.110   .     S
Zr1297 O1298   2.183   .     S
Zr1297 O1299   2.165   .     S
Zr1297 O1661   2.132   .     S
Zr1297 O1659   2.132   .     S
Zr1297 O1757   2.140   1_565 S
Zr1297 O1719   2.140   1_565 S
O1298  H1873   1.110   .     S
O1299  H1874   1.110   .     S
Zr1300 O1301   2.183   .     S
Zr1300 O1302   2.165   .     S
Zr1300 O1662   2.132   .     S
Zr1300 O1660   2.132   .     S
Zr1300 O1758   2.140   .     S
Zr1300 O1720   2.140   .     S
O1301  H1875   1.110   .     S
O1302  H1876   1.110   .     S
Zr1303 O1304   2.183   .     S
Zr1303 O1305   2.165   .     S
Zr1303 O1665   2.132   .     S
Zr1303 O1670   2.132   .     S
Zr1303 O1761   2.140   .     S
Zr1303 O1706   2.140   .     S
O1304  H1877   1.110   .     S
O1305  H1878   1.110   .     S
Zr1306 O1307   2.183   .     S
Zr1306 O1308   2.165   .     S
Zr1306 O1667   2.132   .     S
Zr1306 O1672   2.132   .     S
Zr1306 O1763   2.140   .     S
Zr1306 O1708   2.140   .     S
O1307  H1879   1.110   .     S
O1308  H1880   1.110   .     S
Zr1309 O1310   2.183   .     S
Zr1309 O1311   2.165   .     S
Zr1309 O1669   2.132   .     S
Zr1309 O1666   2.132   .     S
Zr1309 O1765   2.140   .     S
Zr1309 O1710   2.140   .     S
O1310  H1881   1.110   .     S
O1311  H1882   1.110   .     S
Zr1312 O1313   2.183   .     S
Zr1312 O1314   2.165   .     S
Zr1312 O1671   2.132   .     S
Zr1312 O1668   2.132   .     S
Zr1312 O1767   2.140   .     S
Zr1312 O1712   2.140   .     S
O1313  H1883   1.110   .     S
O1314  H1884   1.110   .     S
Zr1315 O1316   2.183   .     S
Zr1315 O1317   2.165   .     S
Zr1315 O1667   2.132   .     S
Zr1315 O1672   2.132   .     S
Zr1315 O1711   2.140   .     S
Zr1315 O1768   2.140   .     S
O1316  H1885   1.110   .     S
O1317  H1886   1.110   .     S
Zr1318 O1319   2.183   .     S
Zr1318 O1320   2.165   .     S
Zr1318 O1673   2.132   .     S
Zr1318 O1678   2.132   .     S
Zr1318 O1769   2.140   1_655 S
Zr1318 O1702   2.140   1_655 S
O1319  H1887   1.110   .     S
O1320  H1888   1.110   .     S
Zr1321 O1322   2.183   .     S
Zr1321 O1323   2.165   .     S
Zr1321 O1675   2.132   .     S
Zr1321 O1680   2.132   .     S
Zr1321 O1771   2.140   .     S
Zr1321 O1704   2.140   .     S
O1322  H1889   1.110   .     S
O1323  H1890   1.110   .     S
Zr1324 O1325   2.183   .     S
Zr1324 O1326   2.165   .     S
Zr1324 O1677   2.132   .     S
Zr1324 O1674   2.132   .     S
Zr1324 O1773   2.140   1_655 D
Zr1324 O1698   2.140   1_655 D
O1325  H1891   1.110   .     S
O1326  H1892   1.110   .     S
Zr1327 O1328   2.183   .     S
Zr1327 O1329   2.165   .     S
Zr1327 O1673   2.132   .     S
Zr1327 O1678   2.132   .     S
Zr1327 O1697   2.140   1_655 S
Zr1327 O1774   2.140   1_655 S
O1328  H1893   1.110   .     S
O1329  H1894   1.110   .     S
Zr1330 O1331   2.183   .     S
Zr1330 O1332   2.165   .     S
Zr1330 O1679   2.132   .     S
Zr1330 O1676   2.132   .     S
Zr1330 O1775   2.140   .     S
Zr1330 O1700   2.140   .     S
O1331  H1895   1.110   .     S
O1332  H1896   1.110   .     S
Zr1333 O1334   2.183   .     S
Zr1333 O1335   2.165   .     S
Zr1333 O1637   2.132   .     S
Zr1333 O1636   2.132   .     S
Zr1333 O1685   2.140   1_556 S
Zr1333 O1732   2.140   1_556 S
O1334  H1897   1.110   .     S
O1335  H1898   1.110   .     S
Zr1336 O1337   2.183   .     S
Zr1336 O1338   2.165   .     S
Zr1336 O1638   2.132   .     S
Zr1336 O1635   2.132   .     S
Zr1336 O1686   2.140   .     S
Zr1336 O1731   2.140   .     S
O1337  H1899   1.110   .     S
O1338  H1900   1.110   .     S
Zr1339 O1340   2.183   .     S
Zr1339 O1341   2.165   .     S
Zr1339 O1634   2.132   .     S
Zr1339 O1639   2.132   .     S
Zr1339 O1682   2.140   .     S
Zr1339 O1735   2.140   .     S
O1340  H1901   1.110   .     S
O1341  H1902   1.110   .     S
Zr1342 O1343   2.183   .     S
Zr1342 O1344   2.165   .     S
Zr1342 O1641   2.132   .     S
Zr1342 O1648   2.132   .     S
Zr1342 O1693   2.140   .     S
Zr1342 O1744   2.140   .     S
O1343  H1903   1.110   .     S
O1344  H1904   1.110   .     S
Zr1345 O1346   2.183   .     S
Zr1345 O1347   2.165   .     S
Zr1345 O1645   2.132   .     S
Zr1345 O1644   2.132   .     S
Zr1345 O1689   2.140   .     S
Zr1345 O1740   2.140   .     S
O1346  H1905   1.110   .     S
O1347  H1906   1.110   .     S
Zr1348 O1349   2.183   .     S
Zr1348 O1350   2.165   .     S
Zr1348 O1646   2.132   .     S
Zr1348 O1643   2.132   .     S
Zr1348 O1690   2.140   .     S
Zr1348 O1739   2.140   .     S
O1349  H1907   1.110   .     S
O1350  H1908   1.110   .     S
Zr1351 O1352   2.183   .     S
Zr1351 O1353   2.165   .     S
Zr1351 O1677   2.132   .     S
Zr1351 O1674   2.132   .     S
Zr1351 O1701   2.140   1_655 S
Zr1351 O1770   2.140   1_655 S
O1352  H1909   1.110   .     S
O1353  H1910   1.110   .     S
Zr1354 O1355   2.183   .     S
Zr1354 O1356   2.165   .     S
Zr1354 O1679   2.132   .     S
Zr1354 O1676   2.132   .     S
Zr1354 O1703   2.140   .     S
Zr1354 O1772   2.140   .     S
O1355  H1911   1.110   .     S
O1356  H1912   1.110   .     S
Zr1357 O1358   2.183   .     S
Zr1357 O1359   2.165   .     S
Zr1357 O1675   2.132   .     S
Zr1357 O1680   2.132   .     S
Zr1357 O1699   2.140   .     S
Zr1357 O1776   2.140   .     S
O1358  H1913   1.110   .     S
O1359  H1914   1.110   .     S
Zr1360 O1361   2.183   .     S
Zr1360 O1362   2.165   .     S
Zr1360 O1665   2.132   .     S
Zr1360 O1670   2.132   .     S
Zr1360 O1709   2.140   .     S
Zr1360 O1766   2.140   .     S
O1361  H1915   1.110   .     S
O1362  H1916   1.110   .     S
Zr1363 O1364   2.183   .     S
Zr1363 O1365   2.165   .     S
Zr1363 O1669   2.132   .     S
Zr1363 O1666   2.132   .     S
Zr1363 O1705   2.140   .     S
Zr1363 O1762   2.140   .     S
O1364  H1917   1.110   .     S
O1365  H1918   1.110   .     S
Zr1366 O1367   2.183   .     S
Zr1366 O1368   2.165   .     S
Zr1366 O1671   2.132   .     S
Zr1366 O1668   2.132   .     S
Zr1366 O1707   2.140   .     S
Zr1366 O1764   2.140   .     S
O1367  H1919   1.110   .     S
O1368  H1920   1.110   .     S
Zr1369 O1370   2.183   .     S
Zr1369 O1371   2.165   .     S
Zr1369 O1657   2.132   .     S
Zr1369 O1663   2.132   .     S
Zr1369 O1717   2.140   1_565 D
Zr1369 O1759   2.140   1_565 D
O1370  H1921   1.110   .     S
O1371  H1922   1.110   .     S
Zr1372 O1373   2.183   .     S
Zr1372 O1374   2.165   .     S
Zr1372 O1658   2.132   .     S
Zr1372 O1664   2.132   .     S
Zr1372 O1718   2.140   .     S
Zr1372 O1760   2.140   .     S
O1373  H1923   1.110   .     S
O1374  H1924   1.110   .     S
Zr1375 O1376   2.183   .     S
Zr1375 O1377   2.165   .     S
Zr1375 O1662   2.132   .     S
Zr1375 O1660   2.132   .     S
Zr1375 O1714   2.140   .     S
Zr1375 O1756   2.140   .     S
O1376  H1925   1.110   .     S
O1377  H1926   1.110   .     S
Zr1378 O1379   2.183   .     S
Zr1378 O1380   2.165   .     S
Zr1378 O1653   2.132   .     S
Zr1378 O1651   2.132   .     S
Zr1378 O1725   2.140   .     S
Zr1378 O1747   2.140   .     S
O1379  H1927   1.110   .     S
O1380  H1928   1.110   .     S
Zr1381 O1382   2.183   .     S
Zr1381 O1383   2.165   .     S
Zr1381 O1654   2.132   .     S
Zr1381 O1652   2.132   .     S
Zr1381 O1726   2.140   .     S
Zr1381 O1748   2.140   .     S
O1382  H1929   1.110   .     S
O1383  H1930   1.110   .     S
Zr1384 O1385   2.183   .     S
Zr1384 O1386   2.165   .     S
Zr1384 O1649   2.132   .     S
Zr1384 O1655   2.132   .     S
Zr1384 O1721   2.140   .     S
Zr1384 O1751   2.140   .     S
O1385  H1931   1.110   .     S
O1386  H1932   1.110   .     S
Zr1387 O1388   2.183   .     S
Zr1387 O1389   2.165   .     S
Zr1387 O1589   2.132   .     S
Zr1387 O1588   2.132   .     S
Zr1387 O1733   2.140   .     S
Zr1387 O1684   2.140   .     S
O1388  H1933   1.110   .     S
O1389  H1934   1.110   .     S
Zr1390 O1391   2.183   .     S
Zr1390 O1392   2.165   .     S
Zr1390 O1590   2.132   .     S
Zr1390 O1587   2.132   .     S
Zr1390 O1734   2.140   .     S
Zr1390 O1683   2.140   .     S
O1391  H1935   1.110   .     S
O1392  H1936   1.110   .     S
Zr1393 O1394   2.183   .     S
Zr1393 O1395   2.165   .     S
Zr1393 O1586   2.132   .     S
Zr1393 O1591   2.132   .     S
Zr1393 O1730   2.140   .     S
Zr1393 O1687   2.140   .     S
O1394  H1937   1.110   .     S
O1395  H1938   1.110   .     S
Zr1396 O1397   2.183   .     S
Zr1396 O1398   2.165   .     S
Zr1396 O1593   2.132   .     S
Zr1396 O1600   2.132   .     S
Zr1396 O1741   2.140   1_556 S
Zr1396 O1696   2.140   1_556 S
O1397  H1939   1.110   .     S
O1398  H1940   1.110   .     S
Zr1399 O1400   2.183   .     S
Zr1399 O1401   2.165   .     S
Zr1399 O1594   2.132   .     S
Zr1399 O1599   2.132   .     S
Zr1399 O1742   2.140   .     S
Zr1399 O1695   2.140   .     S
O1400  H1941   1.110   .     S
O1401  H1942   1.110   .     S
Zr1402 O1403   2.183   .     S
Zr1402 O1404   2.165   .     S
Zr1402 O1597   2.132   .     S
Zr1402 O1596   2.132   .     S
Zr1402 O1737   2.140   1_556 S
Zr1402 O1692   2.140   1_556 S
O1403  H1943   1.110   .     S
O1404  H1944   1.110   .     S
Zr1405 O1406   2.183   .     S
Zr1405 O1407   2.165   .     S
Zr1405 O1629   2.132   .     S
Zr1405 O1627   2.132   .     S
Zr1405 O1749   2.140   1_565 S
Zr1405 O1723   2.140   1_565 S
O1406  H1945   1.110   .     S
O1407  H1946   1.110   .     S
Zr1408 O1409   2.183   .     S
Zr1408 O1410   2.165   .     S
Zr1408 O1630   2.132   .     S
Zr1408 O1628   2.132   .     S
Zr1408 O1750   2.140   .     S
Zr1408 O1724   2.140   .     S
O1409  H1947   1.110   .     S
O1410  H1948   1.110   .     S
Zr1411 O1412   2.183   .     S
Zr1411 O1413   2.165   .     S
Zr1411 O1625   2.132   .     S
Zr1411 O1631   2.132   .     S
Zr1411 O1745   2.140   1_565 S
Zr1411 O1727   2.140   1_565 D
O1412  H1949   1.110   .     S
O1413  H1950   1.110   .     S
Zr1414 O1415   2.183   .     S
Zr1414 O1416   2.165   .     S
Zr1414 O1618   2.132   .     S
Zr1414 O1624   2.132   .     S
Zr1414 O1758   2.140   .     S
Zr1414 O1720   2.140   .     S
O1415  H1951   1.110   .     S
O1416  H1952   1.110   .     S
Zr1417 O1418   2.183   .     S
Zr1417 O1419   2.165   .     S
Zr1417 O1621   2.132   .     S
Zr1417 O1619   2.132   .     S
Zr1417 O1753   2.140   .     S
Zr1417 O1715   2.140   .     S
O1418  H1953   1.110   .     S
O1419  H1954   1.110   .     S
Zr1420 O1421   2.183   .     S
Zr1420 O1422   2.165   .     S
Zr1420 O1622   2.132   .     S
Zr1420 O1620   2.132   .     S
Zr1420 O1754   2.140   .     S
Zr1420 O1716   2.140   .     S
O1421  H1955   1.110   .     S
O1422  H1956   1.110   .     S
Zr1423 O1424   2.183   .     S
Zr1423 O1425   2.165   .     S
Zr1423 O1609   2.132   .     S
Zr1423 O1614   2.132   .     S
Zr1423 O1765   2.140   1_655 D
Zr1423 O1710   2.140   1_655 S
O1424  H1957   1.110   .     S
O1425  H1958   1.110   .     S
Zr1426 O1427   2.183   .     S
Zr1426 O1428   2.165   .     S
Zr1426 O1611   2.132   .     S
Zr1426 O1616   2.132   .     S
Zr1426 O1767   2.140   .     S
Zr1426 O1712   2.140   .     S
O1427  H1959   1.110   .     S
O1428  H1960   1.110   .     S
Zr1429 O1430   2.183   .     S
Zr1429 O1431   2.165   .     S
Zr1429 O1613   2.132   .     S
Zr1429 O1610   2.132   .     S
Zr1429 O1761   2.140   1_655 S
Zr1429 O1706   2.140   1_655 S
O1430  H1961   1.110   .     S
O1431  H1962   1.110   .     S
Zr1432 O1433   2.183   .     S
Zr1432 O1434   2.165   .     S
Zr1432 O1605   2.132   .     S
Zr1432 O1602   2.132   .     S
Zr1432 O1773   2.140   .     S
Zr1432 O1698   2.140   .     S
O1433  H1963   1.110   .     S
O1434  H1964   1.110   .     S
Zr1435 O1436   2.183   .     S
Zr1435 O1437   2.165   .     S
Zr1435 O1607   2.132   .     S
Zr1435 O1604   2.132   .     S
Zr1435 O1775   2.140   .     S
Zr1435 O1700   2.140   .     S
O1436  H1965   1.110   .     S
O1437  H1966   1.110   .     S
Zr1438 O1439   2.183   .     S
Zr1438 O1440   2.165   .     S
Zr1438 O1603   2.132   .     S
Zr1438 O1608   2.132   .     S
Zr1438 O1771   2.140   .     S
Zr1438 O1704   2.140   .     S
O1439  H1967   1.110   .     S
O1440  H1968   1.110   .     S
Zr1441 O1585   2.162   .     S
Zr1441 O1688   2.169   .     S
Zr1441 O1736   2.169   .     S
Zr1441 O293    2.214   1_554 D
Zr1441 O605    2.214   1_554 S
Zr1441 O1633   2.162   1_554 S
Zr1442 O1586   2.162   .     S
Zr1442 O1634   2.162   .     S
Zr1442 O1687   2.169   .     S
Zr1442 O1735   2.169   .     S
Zr1443 O1587   2.162   .     S
Zr1443 O1635   2.162   .     S
Zr1443 O1686   2.169   .     S
Zr1443 O1734   2.169   .     S
Zr1444 O1588   2.162   .     S
Zr1444 O1685   2.169   .     S
Zr1444 O1733   2.169   .     S
Zr1444 O311    2.214   1_554 S
Zr1444 O623    2.214   1_554 S
Zr1444 O1636   2.162   1_554 D
Zr1445 O1589   2.162   .     S
Zr1445 O1684   2.169   .     S
Zr1445 O1732   2.169   .     S
Zr1445 O317    2.214   1_554 S
Zr1445 O581    2.214   1_554 S
Zr1445 O1637   2.162   1_554 S
Zr1446 O1590   2.162   .     S
Zr1446 O1638   2.162   .     S
Zr1446 O1683   2.169   .     S
Zr1446 O1731   2.169   .     S
Zr1447 O1591   2.162   .     S
Zr1447 O1639   2.162   .     S
Zr1447 O1682   2.169   .     S
Zr1447 O1730   2.169   .     S
Zr1448 O1592   2.162   .     S
Zr1448 O1681   2.169   .     S
Zr1448 O1729   2.169   .     S
Zr1448 O335    2.214   1_554 S
Zr1448 O599    2.214   1_554 S
Zr1448 O1640   2.162   1_554 S
Zr1449 O1645   2.162   .     S
Zr1449 O1696   2.169   .     S
Zr1449 O1740   2.169   .     S
Zr1449 O53     2.214   1_554 S
Zr1449 O917    2.214   1_554 S
Zr1449 O1593   2.162   1_554 S
Zr1450 O1594   2.162   .     S
Zr1450 O1646   2.162   .     S
Zr1450 O1695   2.169   .     S
Zr1450 O1739   2.169   .     S
Zr1451 O1595   2.162   .     S
Zr1451 O1647   2.162   .     S
Zr1451 O1694   2.169   .     S
Zr1451 O1738   2.169   .     S
Zr1452 O1648   2.162   .     S
Zr1452 O1693   2.169   .     S
Zr1452 O1737   2.169   .     S
Zr1452 O71     2.214   1_554 S
Zr1452 O935    2.214   1_554 S
Zr1452 O1596   2.162   1_554 S
Zr1453 O1641   2.162   .     S
Zr1453 O1692   2.169   .     S
Zr1453 O1744   2.169   .     S
Zr1453 O77     2.214   1_554 D
Zr1453 O941    2.214   1_554 D
Zr1453 O1597   2.162   1_554 D
Zr1454 O1598   2.162   .     S
Zr1454 O1642   2.162   .     S
Zr1454 O1691   2.169   .     S
Zr1454 O1743   2.169   .     S
Zr1455 O1599   2.162   .     S
Zr1455 O1643   2.162   .     S
Zr1455 O1690   2.169   .     S
Zr1455 O1742   2.169   .     S
Zr1456 O1644   2.162   .     S
Zr1456 O1689   2.169   .     S
Zr1456 O1741   2.169   .     S
Zr1456 O95     2.214   1_554 D
Zr1456 O959    2.214   1_554 D
Zr1456 O1600   2.162   1_554 S
Zr1457 O1601   2.162   .     S
Zr1457 O1702   2.169   .     S
Zr1457 O1774   2.169   .     S
Zr1457 O533    2.214   1_455 D
Zr1457 O701    2.214   1_455 D
Zr1457 O1673   2.162   1_455 S
Zr1458 O1602   2.162   .     S
Zr1458 O1701   2.169   .     S
Zr1458 O1773   2.169   .     S
Zr1458 O539    2.214   1_455 D
Zr1458 O707    2.214   1_455 S
Zr1458 O1674   2.162   1_455 D
Zr1459 O1603   2.162   .     S
Zr1459 O1675   2.162   .     S
Zr1459 O1704   2.169   .     S
Zr1459 O1776   2.169   .     S
Zr1460 O1604   2.162   .     S
Zr1460 O1676   2.162   .     S
Zr1460 O1703   2.169   .     S
Zr1460 O1775   2.169   .     S
Zr1461 O1605   2.162   .     S
Zr1461 O1698   2.169   .     S
Zr1461 O1770   2.169   .     S
Zr1461 O557    2.214   1_455 S
Zr1461 O677    2.214   1_455 S
Zr1461 O1677   2.162   1_455 S
Zr1462 O1606   2.162   .     S
Zr1462 O1697   2.169   .     S
Zr1462 O1769   2.169   .     S
Zr1462 O563    2.214   1_455 S
Zr1462 O683    2.214   1_455 D
Zr1462 O1678   2.162   1_455 S
Zr1463 O1607   2.162   .     S
Zr1463 O1679   2.162   .     S
Zr1463 O1700   2.169   .     S
Zr1463 O1772   2.169   .     S
Zr1464 O1608   2.162   .     S
Zr1464 O1680   2.162   .     S
Zr1464 O1699   2.169   .     S
Zr1464 O1771   2.169   .     S
Zr1465 O1669   2.162   .     S
Zr1465 O1710   2.169   .     S
Zr1465 O1762   2.169   .     S
Zr1465 O149    2.214   1_455 S
Zr1465 O1061   2.214   1_455 S
Zr1465 O1609   2.162   1_455 D
Zr1466 O1670   2.162   .     S
Zr1466 O1709   2.169   .     S
Zr1466 O1761   2.169   .     S
Zr1466 O155    2.214   1_455 S
Zr1466 O1067   2.214   1_455 S
Zr1466 O1610   2.162   1_455 S
Zr1467 O1611   2.162   .     S
Zr1467 O1671   2.162   .     S
Zr1467 O1712   2.169   .     S
Zr1467 O1764   2.169   .     S
Zr1468 O1612   2.162   .     S
Zr1468 O1672   2.162   .     S
Zr1468 O1711   2.169   .     S
Zr1468 O1763   2.169   .     S
Zr1469 O1665   2.162   .     S
Zr1469 O1706   2.169   .     S
Zr1469 O1766   2.169   .     S
Zr1469 O173    2.214   1_455 S
Zr1469 O1085   2.214   1_455 S
Zr1469 O1613   2.162   1_455 S
Zr1470 O1666   2.162   .     S
Zr1470 O1705   2.169   .     S
Zr1470 O1765   2.169   .     S
Zr1470 O179    2.214   1_455 S
Zr1470 O1091   2.214   1_455 D
Zr1470 O1614   2.162   1_455 D
Zr1471 O1615   2.162   .     S
Zr1471 O1667   2.162   .     S
Zr1471 O1708   2.169   .     S
Zr1471 O1768   2.169   .     S
Zr1472 O1616   2.162   .     S
Zr1472 O1668   2.162   .     S
Zr1472 O1707   2.169   .     S
Zr1472 O1767   2.169   .     S
Zr1473 O1617   2.162   .     S
Zr1473 O1719   2.169   .     S
Zr1473 O1755   2.169   .     S
Zr1473 O461    2.214   1_545 S
Zr1473 O797    2.214   1_545 S
Zr1473 O1661   2.162   1_545 S
Zr1474 O1618   2.162   .     S
Zr1474 O1662   2.162   .     S
Zr1474 O1720   2.169   .     S
Zr1474 O1756   2.169   .     S
Zr1475 O1619   2.162   .     S
Zr1475 O1717   2.169   .     S
Zr1475 O1753   2.169   .     S
Zr1475 O473    2.214   1_545 S
Zr1475 O809    2.214   1_545 S
Zr1475 O1663   2.162   1_545 S
Zr1476 O1620   2.162   .     S
Zr1476 O1664   2.162   .     S
Zr1476 O1718   2.169   .     S
Zr1476 O1754   2.169   .     S
Zr1477 O1621   2.162   .     S
Zr1477 O1715   2.169   .     S
Zr1477 O1759   2.169   .     S
Zr1477 O437    2.214   1_545 S
Zr1477 O773    2.214   1_545 S
Zr1477 O1657   2.162   1_545 D
Zr1478 O1622   2.162   .     S
Zr1478 O1658   2.162   .     S
Zr1478 O1716   2.169   .     S
Zr1478 O1760   2.169   .     S
Zr1479 O1623   2.162   .     S
Zr1479 O1713   2.169   .     S
Zr1479 O1757   2.169   .     S
Zr1479 O449    2.214   1_545 S
Zr1479 O785    2.214   1_545 S
Zr1479 O1659   2.162   1_545 S
Zr1480 O1624   2.162   .     S
Zr1480 O1660   2.162   .     S
Zr1480 O1714   2.169   .     S
Zr1480 O1758   2.169   .     S
Zr1481 O1649   2.162   .     S
Zr1481 O1727   2.169   .     S
Zr1481 O1751   2.169   .     S
Zr1481 O245    2.214   1_545 S
Zr1481 O989    2.214   1_545 S
Zr1481 O1625   2.162   1_545 S
Zr1482 O1626   2.162   .     S
Zr1482 O1650   2.162   .     S
Zr1482 O1728   2.169   .     S
Zr1482 O1752   2.169   .     S
Zr1483 O1651   2.162   .     S
Zr1483 O1725   2.169   .     S
Zr1483 O1749   2.169   .     S
Zr1483 O257    2.214   1_545 S
Zr1483 O1001   2.214   1_545 S
Zr1483 O1627   2.162   1_545 D
Zr1484 O1628   2.162   .     S
Zr1484 O1652   2.162   .     S
Zr1484 O1726   2.169   .     S
Zr1484 O1750   2.169   .     S
Zr1485 O1653   2.162   .     S
Zr1485 O1723   2.169   .     S
Zr1485 O1747   2.169   .     S
Zr1485 O269    2.214   1_545 S
Zr1485 O965    2.214   1_545 S
Zr1485 O1629   2.162   1_545 S
Zr1486 O1630   2.162   .     S
Zr1486 O1654   2.162   .     S
Zr1486 O1724   2.169   .     S
Zr1486 O1748   2.169   .     S
Zr1487 O1655   2.162   .     S
Zr1487 O1721   2.169   .     S
Zr1487 O1745   2.169   .     S
Zr1487 O281    2.214   1_545 D
Zr1487 O977    2.214   1_545 S
Zr1487 O1631   2.162   1_545 S
Zr1488 O1632   2.162   .     S
Zr1488 O1656   2.162   .     S
Zr1488 O1722   2.169   .     S
Zr1488 O1746   2.169   .     S
O1593  Zr1449  2.162   1_556 S
O1596  Zr1452  2.162   1_556 S
O1597  Zr1453  2.162   1_556 D
O1600  Zr1456  2.162   1_556 S
O1609  Zr1465  2.162   1_655 D
O1610  Zr1466  2.162   1_655 S
O1613  Zr1469  2.162   1_655 S
O1614  Zr1470  2.162   1_655 D
O1625  Zr1481  2.162   1_565 S
O1627  Zr1483  2.162   1_565 D
O1629  Zr1485  2.162   1_565 S
O1631  Zr1487  2.162   1_565 S
O1633  Zr1441  2.162   1_556 S
O1636  Zr1444  2.162   1_556 D
O1637  Zr1445  2.162   1_556 S
O1640  Zr1448  2.162   1_556 S
O1657  Zr1477  2.162   1_565 D
O1659  Zr1479  2.162   1_565 S
O1661  Zr1473  2.162   1_565 S
O1663  Zr1475  2.162   1_565 S
O1673  Zr1457  2.162   1_655 S
O1674  Zr1458  2.162   1_655 D
O1677  Zr1461  2.162   1_655 S
O1678  Zr1462  2.162   1_655 S
O1681  Zr1255  2.140   1_554 S
O1684  Zr1249  2.140   1_554 S
O1685  Zr1333  2.140   1_554 S
O1688  Zr1243  2.140   1_554 S
O1689  Zr1168  2.140   1_554 D
O1692  Zr1402  2.140   1_554 S
O1693  Zr1177  2.140   1_554 S
O1696  Zr1396  2.140   1_554 S
O1697  Zr1327  2.140   1_455 S
O1698  Zr1324  2.140   1_455 D
O1701  Zr1351  2.140   1_455 S
O1702  Zr1318  2.140   1_455 S
O1705  Zr1198  2.140   1_455 S
O1706  Zr1429  2.140   1_455 S
O1709  Zr1207  2.140   1_455 S
O1710  Zr1423  2.140   1_455 S
O1713  Zr1294  2.140   1_545 S
O1715  Zr1288  2.140   1_545 S
O1717  Zr1369  2.140   1_545 D
O1719  Zr1297  2.140   1_545 S
O1721  Zr1228  2.140   1_545 D
O1723  Zr1405  2.140   1_545 S
O1725  Zr1234  2.140   1_545 S
O1727  Zr1411  2.140   1_545 D
O1729  Zr1243  2.140   1_554 S
O1732  Zr1333  2.140   1_554 S
O1733  Zr1249  2.140   1_554 S
O1736  Zr1255  2.140   1_554 D
O1737  Zr1402  2.140   1_554 S
O1740  Zr1168  2.140   1_554 S
O1741  Zr1396  2.140   1_554 S
O1744  Zr1177  2.140   1_554 S
O1745  Zr1411  2.140   1_545 S
O1747  Zr1234  2.140   1_545 S
O1749  Zr1405  2.140   1_545 S
O1751  Zr1228  2.140   1_545 D
O1753  Zr1288  2.140   1_545 D
O1755  Zr1294  2.140   1_545 S
O1757  Zr1297  2.140   1_545 S
O1759  Zr1369  2.140   1_545 D
O1761  Zr1429  2.140   1_455 S
O1762  Zr1198  2.140   1_455 S
O1765  Zr1423  2.140   1_455 D
O1766  Zr1207  2.140   1_455 S
O1769  Zr1318  2.140   1_455 S
O1770  Zr1351  2.140   1_455 S
O1773  Zr1324  2.140   1_455 D
O1774  Zr1327  2.140   1_455 S
