data_XICYUF

_audit_creation_method RASPA-1.0
_audit_creation_date 2020-11-2
_audit_author_name 'Rocio Bueno-Perez'

_cell_length_a    53.68
_cell_length_b    53.68
_cell_length_c    53.68
_cell_angle_alpha 90
_cell_angle_beta  90
_cell_angle_gamma 90
_cell_volume      154681

_symmetry_cell_setting          triclinic
_symmetry_space_group_name_Hall 'P 1'
_symmetry_space_group_name_H-M  'P 1'
_symmetry_Int_Tables_number     1

_symmetry_equiv_pos_as_xyz 'x,y,z'

loop_
_atom_site_label
_atom_site_type_symbol
_atom_site_fract_x
_atom_site_fract_y
_atom_site_fract_z
_atom_site_charge
Zr1      Zr     0.362170000000     0.408710000000     0.212440000000     0          
Zr2      Zr     0.332790000000     0.379570000000     0.161220000000     0          
S3       S      0.320490000000     0.434240000000     0.085540000000     0          
O4       O      0.378800000000     0.414710000000     0.124570000000     0          
O5       O      0.337680000000     0.406630000000     0.128840000000     0          
O6       O      0.288070000000     0.457690000000     0.049510000000     0          
O7       O      0.317400000000     0.475660000000     0.025870000000     0          
O8       O      0.297850000000     0.359110000000     0.172850000000     0          
O9       O      0.305490000000     0.339580000000     0.209390000000     0          
O10      O      0.327080000000     0.362600000000     0.249070000000     0          
O11      O      0.339250000000     0.402840000000     0.247790000000     0          
O12      O      0.376840000000     0.445370000000     0.196410000000     0          
O13      O      0.400440000000     0.435580000000     0.162990000000     0          
O14      O      0.361680000000     0.401570000000     0.174400000000     0          
O15      O      0.330660000000     0.383400000000     0.202760000000     0          
O16      O      0.381580000000     0.426840000000     0.242540000000     0          
O17      O      0.330920000000     0.435130000000     0.210020000000     0          
O18      O      0.253250000000     0.426660000000     0.031010000000     0          
C19      C      0.356250000000     0.416570000000     0.118150000000     0          
C20      C      0.350560000000     0.432010000000     0.096190000000     0          
C21      C      0.366600000000     0.445670000000     0.082080000000     0          
H22      H      0.387320000000     0.445850000000     0.086730000000     0          
C23      C      0.353840000000     0.458430000000     0.062350000000     0          
H24      H      0.364640000000     0.471130000000     0.049190000000     0          
C25      C      0.329300000000     0.453540000000     0.061790000000     0          
C26      C      0.310030000000     0.463300000000     0.044290000000     0          
C27      C      0.292840000000     0.343910000000     0.189930000000     0          
C28      C      0.269460000000     0.329450000000     0.186730000000     0          
C29      C      0.261200000000     0.309440000000     0.199870000000     0          
H30      H      0.272410000000     0.302230000000     0.216400000000     0          
C31      C      0.327050000000     0.384680000000     0.256550000000     0          
C32      C      0.310550000000     0.391010000000     0.278220000000     0          
C33      C      0.307040000000     0.413520000000     0.288570000000     0          
H34      H      0.318590000000     0.430110000000     0.282070000000     0          
C35      C      0.390470000000     0.450640000000     0.178160000000     0          
C36      C      0.394710000000     0.477270000000     0.172790000000     0          
C37      C      0.406900000000     0.486800000000     0.152800000000     0          
H38      H      0.415630000000     0.473770000000     0.138480000000     0          
O39      O      0.304690000000     0.408290000000     0.164550000000     0          
C40      C      0.289700000000     0.408100000000     0.179100000000     0          
O41      O      0.285000000000     0.411100000000     0.199000000000     0          
O42      O      0.317720000000     0.361070000000     0.128110000000     0          
S43      S      0.265660000000     0.321200000000     0.098800000000     0          
C44      C      0.243700000000     0.364200000000     0.103300000000     0          
C45      C      0.282700000000     0.346100000000     0.109300000000     0          
C46      C      0.308900000000     0.340300000000     0.122100000000     0          
C47      C      0.266200000000     0.367900000000     0.109700000000     0          
C48      C      0.239400000000     0.338500000000     0.094800000000     0          
H49      H      0.402260000000     0.426840000000     0.242540000000     0          
H50      H      0.351600000000     0.435130000000     0.210020000000     0          
H51      H      0.273930000000     0.426660000000     0.031010000000     0          
Zr52     Zr     0.862170000000     0.908710000000     0.712440000000     0          
Zr53     Zr     0.832790000000     0.879570000000     0.661220000000     0          
S54      S      0.820490000000     0.934240000000     0.585540000000     0          
O55      O      0.878800000000     0.914710000000     0.624570000000     0          
O56      O      0.837680000000     0.906630000000     0.628840000000     0          
O57      O      0.788070000000     0.957690000000     0.549510000000     0          
O58      O      0.817400000000     0.975660000000     0.525870000000     0          
O59      O      0.797850000000     0.859110000000     0.672850000000     0          
O60      O      0.805490000000     0.839580000000     0.709390000000     0          
O61      O      0.827080000000     0.862600000000     0.749070000000     0          
O62      O      0.839250000000     0.902840000000     0.747790000000     0          
O63      O      0.876840000000     0.945370000000     0.696410000000     0          
O64      O      0.900440000000     0.935580000000     0.662990000000     0          
O65      O      0.861680000000     0.901570000000     0.674400000000     0          
O66      O      0.830660000000     0.883400000000     0.702760000000     0          
O67      O      0.881580000000     0.926840000000     0.742540000000     0          
O68      O      0.830920000000     0.935130000000     0.710020000000     0          
O69      O      0.753250000000     0.926660000000     0.531010000000     0          
C70      C      0.856250000000     0.916570000000     0.618150000000     0          
C71      C      0.850560000000     0.932010000000     0.596190000000     0          
C72      C      0.866600000000     0.945670000000     0.582080000000     0          
H73      H      0.887320000000     0.945850000000     0.586730000000     0          
C74      C      0.853840000000     0.958430000000     0.562350000000     0          
H75      H      0.864640000000     0.971130000000     0.549190000000     0          
C76      C      0.829300000000     0.953540000000     0.561790000000     0          
C77      C      0.810030000000     0.963300000000     0.544290000000     0          
C78      C      0.792840000000     0.843910000000     0.689930000000     0          
C79      C      0.769460000000     0.829450000000     0.686730000000     0          
C80      C      0.761200000000     0.809440000000     0.699870000000     0          
H81      H      0.772410000000     0.802230000000     0.716400000000     0          
C82      C      0.827050000000     0.884680000000     0.756550000000     0          
C83      C      0.810550000000     0.891010000000     0.778220000000     0          
C84      C      0.807040000000     0.913520000000     0.788570000000     0          
H85      H      0.818590000000     0.930110000000     0.782070000000     0          
C86      C      0.890470000000     0.950640000000     0.678160000000     0          
C87      C      0.894710000000     0.977270000000     0.672790000000     0          
C88      C      0.906900000000     0.986800000000     0.652800000000     0          
H89      H      0.915630000000     0.973770000000     0.638480000000     0          
O90      O      0.804690000000     0.908290000000     0.664550000000     0          
C91      C      0.789700000000     0.908100000000     0.679100000000     0          
O92      O      0.785000000000     0.911100000000     0.699000000000     0          
O93      O      0.817720000000     0.861070000000     0.628110000000     0          
S94      S      0.765660000000     0.821200000000     0.598800000000     0          
C95      C      0.743700000000     0.864200000000     0.603300000000     0          
C96      C      0.782700000000     0.846100000000     0.609300000000     0          
C97      C      0.808900000000     0.840300000000     0.622100000000     0          
C98      C      0.766200000000     0.867900000000     0.609700000000     0          
C99      C      0.739400000000     0.838500000000     0.594800000000     0          
H100     H      0.902260000000     0.926840000000     0.742540000000     0          
H101     H      0.851600000000     0.935130000000     0.710020000000     0          
H102     H      0.773930000000     0.926660000000     0.531010000000     0          
Zr103    Zr     0.637830000000     0.591290000000     0.212440000000     0          
Zr104    Zr     0.667210000000     0.620430000000     0.161220000000     0          
S105     S      0.679510000000     0.565760000000     0.085540000000     0          
O106     O      0.621200000000     0.585290000000     0.124570000000     0          
O107     O      0.662320000000     0.593370000000     0.128840000000     0          
O108     O      0.711930000000     0.542310000000     0.049510000000     0          
O109     O      0.682600000000     0.524340000000     0.025870000000     0          
O110     O      0.702150000000     0.640890000000     0.172850000000     0          
O111     O      0.694510000000     0.660420000000     0.209390000000     0          
O112     O      0.672920000000     0.637400000000     0.249070000000     0          
O113     O      0.660750000000     0.597160000000     0.247790000000     0          
O114     O      0.623160000000     0.554630000000     0.196410000000     0          
O115     O      0.599560000000     0.564420000000     0.162990000000     0          
O116     O      0.638320000000     0.598430000000     0.174400000000     0          
O117     O      0.669340000000     0.616600000000     0.202760000000     0          
O118     O      0.618420000000     0.573160000000     0.242540000000     0          
O119     O      0.669080000000     0.564870000000     0.210020000000     0          
O120     O      0.746750000000     0.573340000000     0.031010000000     0          
C121     C      0.643750000000     0.583430000000     0.118150000000     0          
C122     C      0.649440000000     0.567990000000     0.096190000000     0          
C123     C      0.633400000000     0.554330000000     0.082080000000     0          
H124     H      0.612680000000     0.554150000000     0.086730000000     0          
C125     C      0.646160000000     0.541570000000     0.062350000000     0          
H126     H      0.635360000000     0.528870000000     0.049190000000     0          
C127     C      0.670700000000     0.546460000000     0.061790000000     0          
C128     C      0.689970000000     0.536700000000     0.044290000000     0          
C129     C      0.707160000000     0.656090000000     0.189930000000     0          
C130     C      0.730540000000     0.670550000000     0.186730000000     0          
C131     C      0.738800000000     0.690560000000     0.199870000000     0          
H132     H      0.727590000000     0.697770000000     0.216400000000     0          
C133     C      0.672950000000     0.615320000000     0.256550000000     0          
C134     C      0.689450000000     0.608990000000     0.278220000000     0          
C135     C      0.692960000000     0.586480000000     0.288570000000     0          
H136     H      0.681410000000     0.569890000000     0.282070000000     0          
C137     C      0.609530000000     0.549360000000     0.178160000000     0          
C138     C      0.605290000000     0.522730000000     0.172790000000     0          
C139     C      0.593100000000     0.513200000000     0.152800000000     0          
H140     H      0.584370000000     0.526230000000     0.138480000000     0          
O141     O      0.695310000000     0.591710000000     0.164550000000     0          
C142     C      0.710300000000     0.591900000000     0.179100000000     0          
O143     O      0.715000000000     0.588900000000     0.199000000000     0          
O144     O      0.682280000000     0.638930000000     0.128110000000     0          
S145     S      0.734340000000     0.678800000000     0.098800000000     0          
C146     C      0.756300000000     0.635800000000     0.103300000000     0          
C147     C      0.717300000000     0.653900000000     0.109300000000     0          
C148     C      0.691100000000     0.659700000000     0.122100000000     0          
C149     C      0.733800000000     0.632100000000     0.109700000000     0          
C150     C      0.760600000000     0.661500000000     0.094800000000     0          
H151     H      0.597740000000     0.573160000000     0.242540000000     0          
H152     H      0.648400000000     0.564870000000     0.210020000000     0          
H153     H      0.726070000000     0.573340000000     0.031010000000     0          
Zr154    Zr     0.137830000000     0.091290000000     0.712440000000     0          
Zr155    Zr     0.167210000000     0.120430000000     0.661220000000     0          
S156     S      0.179510000000     0.065760000000     0.585540000000     0          
O157     O      0.121200000000     0.085290000000     0.624570000000     0          
O158     O      0.162320000000     0.093370000000     0.628840000000     0          
O159     O      0.211930000000     0.042310000000     0.549510000000     0          
O160     O      0.182600000000     0.024340000000     0.525870000000     0          
O161     O      0.202150000000     0.140890000000     0.672850000000     0          
O162     O      0.194510000000     0.160420000000     0.709390000000     0          
O163     O      0.172920000000     0.137400000000     0.749070000000     0          
O164     O      0.160750000000     0.097160000000     0.747790000000     0          
O165     O      0.123160000000     0.054630000000     0.696410000000     0          
O166     O      0.099560000000     0.064420000000     0.662990000000     0          
O167     O      0.138320000000     0.098430000000     0.674400000000     0          
O168     O      0.169340000000     0.116600000000     0.702760000000     0          
O169     O      0.118420000000     0.073160000000     0.742540000000     0          
O170     O      0.169080000000     0.064870000000     0.710020000000     0          
O171     O      0.246750000000     0.073340000000     0.531010000000     0          
C172     C      0.143750000000     0.083430000000     0.618150000000     0          
C173     C      0.149440000000     0.067990000000     0.596190000000     0          
C174     C      0.133400000000     0.054330000000     0.582080000000     0          
H175     H      0.112680000000     0.054150000000     0.586730000000     0          
C176     C      0.146160000000     0.041570000000     0.562350000000     0          
H177     H      0.135360000000     0.028870000000     0.549190000000     0          
C178     C      0.170700000000     0.046460000000     0.561790000000     0          
C179     C      0.189970000000     0.036700000000     0.544290000000     0          
C180     C      0.207160000000     0.156090000000     0.689930000000     0          
C181     C      0.230540000000     0.170550000000     0.686730000000     0          
C182     C      0.238800000000     0.190560000000     0.699870000000     0          
H183     H      0.227590000000     0.197770000000     0.716400000000     0          
C184     C      0.172950000000     0.115320000000     0.756550000000     0          
C185     C      0.189450000000     0.108990000000     0.778220000000     0          
C186     C      0.192960000000     0.086480000000     0.788570000000     0          
H187     H      0.181410000000     0.069890000000     0.782070000000     0          
C188     C      0.109530000000     0.049360000000     0.678160000000     0          
C189     C      0.105290000000     0.022730000000     0.672790000000     0          
C190     C      0.093100000000     0.013200000000     0.652800000000     0          
H191     H      0.084370000000     0.026230000000     0.638480000000     0          
O192     O      0.195310000000     0.091710000000     0.664550000000     0          
C193     C      0.210300000000     0.091900000000     0.679100000000     0          
O194     O      0.215000000000     0.088900000000     0.699000000000     0          
O195     O      0.182280000000     0.138930000000     0.628110000000     0          
S196     S      0.234340000000     0.178800000000     0.598800000000     0          
C197     C      0.256300000000     0.135800000000     0.603300000000     0          
C198     C      0.217300000000     0.153900000000     0.609300000000     0          
C199     C      0.191100000000     0.159700000000     0.622100000000     0          
C200     C      0.233800000000     0.132100000000     0.609700000000     0          
C201     C      0.260600000000     0.161500000000     0.594800000000     0          
H202     H      0.097740000000     0.073160000000     0.742540000000     0          
H203     H      0.148400000000     0.064870000000     0.710020000000     0          
H204     H      0.226070000000     0.073340000000     0.531010000000     0          
Zr205    Zr     0.637830000000     0.408710000000     0.787560000000     0          
Zr206    Zr     0.667210000000     0.379570000000     0.838780000000     0          
S207     S      0.679510000000     0.434240000000     0.914460000000     0          
O208     O      0.621200000000     0.414710000000     0.875430000000     0          
O209     O      0.662320000000     0.406630000000     0.871160000000     0          
O210     O      0.711930000000     0.457690000000     0.950490000000     0          
O211     O      0.682600000000     0.475660000000     0.974130000000     0          
O212     O      0.702150000000     0.359110000000     0.827150000000     0          
O213     O      0.694510000000     0.339580000000     0.790610000000     0          
O214     O      0.672920000000     0.362600000000     0.750930000000     0          
O215     O      0.660750000000     0.402840000000     0.752210000000     0          
O216     O      0.623160000000     0.445370000000     0.803590000000     0          
O217     O      0.599560000000     0.435580000000     0.837010000000     0          
O218     O      0.638320000000     0.401570000000     0.825600000000     0          
O219     O      0.669340000000     0.383400000000     0.797240000000     0          
O220     O      0.618420000000     0.426840000000     0.757460000000     0          
O221     O      0.669080000000     0.435130000000     0.789980000000     0          
O222     O      0.746750000000     0.426660000000     0.968990000000     0          
C223     C      0.643750000000     0.416570000000     0.881850000000     0          
C224     C      0.649440000000     0.432010000000     0.903810000000     0          
C225     C      0.633400000000     0.445670000000     0.917920000000     0          
H226     H      0.612680000000     0.445850000000     0.913270000000     0          
C227     C      0.646160000000     0.458430000000     0.937650000000     0          
H228     H      0.635360000000     0.471130000000     0.950810000000     0          
C229     C      0.670700000000     0.453540000000     0.938210000000     0          
C230     C      0.689970000000     0.463300000000     0.955710000000     0          
C231     C      0.707160000000     0.343910000000     0.810070000000     0          
C232     C      0.730540000000     0.329450000000     0.813270000000     0          
C233     C      0.738800000000     0.309440000000     0.800130000000     0          
H234     H      0.727590000000     0.302230000000     0.783600000000     0          
C235     C      0.672950000000     0.384680000000     0.743450000000     0          
C236     C      0.689450000000     0.391010000000     0.721780000000     0          
C237     C      0.692960000000     0.413520000000     0.711430000000     0          
H238     H      0.681410000000     0.430110000000     0.717930000000     0          
C239     C      0.609530000000     0.450640000000     0.821840000000     0          
C240     C      0.605290000000     0.477270000000     0.827210000000     0          
C241     C      0.593100000000     0.486800000000     0.847200000000     0          
H242     H      0.584370000000     0.473770000000     0.861520000000     0          
O243     O      0.695310000000     0.408290000000     0.835450000000     0          
C244     C      0.710300000000     0.408100000000     0.820900000000     0          
O245     O      0.715000000000     0.411100000000     0.801000000000     0          
O246     O      0.682280000000     0.361070000000     0.871890000000     0          
S247     S      0.734340000000     0.321200000000     0.901200000000     0          
C248     C      0.756300000000     0.364200000000     0.896700000000     0          
C249     C      0.717300000000     0.346100000000     0.890700000000     0          
C250     C      0.691100000000     0.340300000000     0.877900000000     0          
C251     C      0.733800000000     0.367900000000     0.890300000000     0          
C252     C      0.760600000000     0.338500000000     0.905200000000     0          
H253     H      0.597740000000     0.426840000000     0.757460000000     0          
H254     H      0.648400000000     0.435130000000     0.789980000000     0          
H255     H      0.726070000000     0.426660000000     0.968990000000     0          
Zr256    Zr     0.137830000000     0.908710000000     0.287560000000     0          
Zr257    Zr     0.167210000000     0.879570000000     0.338780000000     0          
S258     S      0.179510000000     0.934240000000     0.414460000000     0          
O259     O      0.121200000000     0.914710000000     0.375430000000     0          
O260     O      0.162320000000     0.906630000000     0.371160000000     0          
O261     O      0.211930000000     0.957690000000     0.450490000000     0          
O262     O      0.182600000000     0.975660000000     0.474130000000     0          
O263     O      0.202150000000     0.859110000000     0.327150000000     0          
O264     O      0.194510000000     0.839580000000     0.290610000000     0          
O265     O      0.172920000000     0.862600000000     0.250930000000     0          
O266     O      0.160750000000     0.902840000000     0.252210000000     0          
O267     O      0.123160000000     0.945370000000     0.303590000000     0          
O268     O      0.099560000000     0.935580000000     0.337010000000     0          
O269     O      0.138320000000     0.901570000000     0.325600000000     0          
O270     O      0.169340000000     0.883400000000     0.297240000000     0          
O271     O      0.118420000000     0.926840000000     0.257460000000     0          
O272     O      0.169080000000     0.935130000000     0.289980000000     0          
O273     O      0.246750000000     0.926660000000     0.468990000000     0          
C274     C      0.143750000000     0.916570000000     0.381850000000     0          
C275     C      0.149440000000     0.932010000000     0.403810000000     0          
C276     C      0.133400000000     0.945670000000     0.417920000000     0          
H277     H      0.112680000000     0.945850000000     0.413270000000     0          
C278     C      0.146160000000     0.958430000000     0.437650000000     0          
H279     H      0.135360000000     0.971130000000     0.450810000000     0          
C280     C      0.170700000000     0.953540000000     0.438210000000     0          
C281     C      0.189970000000     0.963300000000     0.455710000000     0          
C282     C      0.207160000000     0.843910000000     0.310070000000     0          
C283     C      0.230540000000     0.829450000000     0.313270000000     0          
C284     C      0.238800000000     0.809440000000     0.300130000000     0          
H285     H      0.227590000000     0.802230000000     0.283600000000     0          
C286     C      0.172950000000     0.884680000000     0.243450000000     0          
C287     C      0.189450000000     0.891010000000     0.221780000000     0          
C288     C      0.192960000000     0.913520000000     0.211430000000     0          
H289     H      0.181410000000     0.930110000000     0.217930000000     0          
C290     C      0.109530000000     0.950640000000     0.321840000000     0          
C291     C      0.105290000000     0.977270000000     0.327210000000     0          
C292     C      0.093100000000     0.986800000000     0.347200000000     0          
H293     H      0.084370000000     0.973770000000     0.361520000000     0          
O294     O      0.195310000000     0.908290000000     0.335450000000     0          
C295     C      0.210300000000     0.908100000000     0.320900000000     0          
O296     O      0.215000000000     0.911100000000     0.301000000000     0          
O297     O      0.182280000000     0.861070000000     0.371890000000     0          
S298     S      0.234340000000     0.821200000000     0.401200000000     0          
C299     C      0.256300000000     0.864200000000     0.396700000000     0          
C300     C      0.217300000000     0.846100000000     0.390700000000     0          
C301     C      0.191100000000     0.840300000000     0.377900000000     0          
C302     C      0.233800000000     0.867900000000     0.390300000000     0          
C303     C      0.260600000000     0.838500000000     0.405200000000     0          
H304     H      0.097740000000     0.926840000000     0.257460000000     0          
H305     H      0.148400000000     0.935130000000     0.289980000000     0          
H306     H      0.226070000000     0.926660000000     0.468990000000     0          
Zr307    Zr     0.362170000000     0.591290000000     0.787560000000     0          
Zr308    Zr     0.332790000000     0.620430000000     0.838780000000     0          
S309     S      0.320490000000     0.565760000000     0.914460000000     0          
O310     O      0.378800000000     0.585290000000     0.875430000000     0          
O311     O      0.337680000000     0.593370000000     0.871160000000     0          
O312     O      0.288070000000     0.542310000000     0.950490000000     0          
O313     O      0.317400000000     0.524340000000     0.974130000000     0          
O314     O      0.297850000000     0.640890000000     0.827150000000     0          
O315     O      0.305490000000     0.660420000000     0.790610000000     0          
O316     O      0.327080000000     0.637400000000     0.750930000000     0          
O317     O      0.339250000000     0.597160000000     0.752210000000     0          
O318     O      0.376840000000     0.554630000000     0.803590000000     0          
O319     O      0.400440000000     0.564420000000     0.837010000000     0          
O320     O      0.361680000000     0.598430000000     0.825600000000     0          
O321     O      0.330660000000     0.616600000000     0.797240000000     0          
O322     O      0.381580000000     0.573160000000     0.757460000000     0          
O323     O      0.330920000000     0.564870000000     0.789980000000     0          
O324     O      0.253250000000     0.573340000000     0.968990000000     0          
C325     C      0.356250000000     0.583430000000     0.881850000000     0          
C326     C      0.350560000000     0.567990000000     0.903810000000     0          
C327     C      0.366600000000     0.554330000000     0.917920000000     0          
H328     H      0.387320000000     0.554150000000     0.913270000000     0          
C329     C      0.353840000000     0.541570000000     0.937650000000     0          
H330     H      0.364640000000     0.528870000000     0.950810000000     0          
C331     C      0.329300000000     0.546460000000     0.938210000000     0          
C332     C      0.310030000000     0.536700000000     0.955710000000     0          
C333     C      0.292840000000     0.656090000000     0.810070000000     0          
C334     C      0.269460000000     0.670550000000     0.813270000000     0          
C335     C      0.261200000000     0.690560000000     0.800130000000     0          
H336     H      0.272410000000     0.697770000000     0.783600000000     0          
C337     C      0.327050000000     0.615320000000     0.743450000000     0          
C338     C      0.310550000000     0.608990000000     0.721780000000     0          
C339     C      0.307040000000     0.586480000000     0.711430000000     0          
H340     H      0.318590000000     0.569890000000     0.717930000000     0          
C341     C      0.390470000000     0.549360000000     0.821840000000     0          
C342     C      0.394710000000     0.522730000000     0.827210000000     0          
C343     C      0.406900000000     0.513200000000     0.847200000000     0          
H344     H      0.415630000000     0.526230000000     0.861520000000     0          
O345     O      0.304690000000     0.591710000000     0.835450000000     0          
C346     C      0.289700000000     0.591900000000     0.820900000000     0          
O347     O      0.285000000000     0.588900000000     0.801000000000     0          
O348     O      0.317720000000     0.638930000000     0.871890000000     0          
S349     S      0.265660000000     0.678800000000     0.901200000000     0          
C350     C      0.243700000000     0.635800000000     0.896700000000     0          
C351     C      0.282700000000     0.653900000000     0.890700000000     0          
C352     C      0.308900000000     0.659700000000     0.877900000000     0          
C353     C      0.266200000000     0.632100000000     0.890300000000     0          
C354     C      0.239400000000     0.661500000000     0.905200000000     0          
H355     H      0.402260000000     0.573160000000     0.757460000000     0          
H356     H      0.351600000000     0.564870000000     0.789980000000     0          
H357     H      0.273930000000     0.573340000000     0.968990000000     0          
Zr358    Zr     0.862170000000     0.091290000000     0.287560000000     0          
Zr359    Zr     0.832790000000     0.120430000000     0.338780000000     0          
S360     S      0.820490000000     0.065760000000     0.414460000000     0          
O361     O      0.878800000000     0.085290000000     0.375430000000     0          
O362     O      0.837680000000     0.093370000000     0.371160000000     0          
O363     O      0.788070000000     0.042310000000     0.450490000000     0          
O364     O      0.817400000000     0.024340000000     0.474130000000     0          
O365     O      0.797850000000     0.140890000000     0.327150000000     0          
O366     O      0.805490000000     0.160420000000     0.290610000000     0          
O367     O      0.827080000000     0.137400000000     0.250930000000     0          
O368     O      0.839250000000     0.097160000000     0.252210000000     0          
O369     O      0.876840000000     0.054630000000     0.303590000000     0          
O370     O      0.900440000000     0.064420000000     0.337010000000     0          
O371     O      0.861680000000     0.098430000000     0.325600000000     0          
O372     O      0.830660000000     0.116600000000     0.297240000000     0          
O373     O      0.881580000000     0.073160000000     0.257460000000     0          
O374     O      0.830920000000     0.064870000000     0.289980000000     0          
O375     O      0.753250000000     0.073340000000     0.468990000000     0          
C376     C      0.856250000000     0.083430000000     0.381850000000     0          
C377     C      0.850560000000     0.067990000000     0.403810000000     0          
C378     C      0.866600000000     0.054330000000     0.417920000000     0          
H379     H      0.887320000000     0.054150000000     0.413270000000     0          
C380     C      0.853840000000     0.041570000000     0.437650000000     0          
H381     H      0.864640000000     0.028870000000     0.450810000000     0          
C382     C      0.829300000000     0.046460000000     0.438210000000     0          
C383     C      0.810030000000     0.036700000000     0.455710000000     0          
C384     C      0.792840000000     0.156090000000     0.310070000000     0          
C385     C      0.769460000000     0.170550000000     0.313270000000     0          
C386     C      0.761200000000     0.190560000000     0.300130000000     0          
H387     H      0.772410000000     0.197770000000     0.283600000000     0          
C388     C      0.827050000000     0.115320000000     0.243450000000     0          
C389     C      0.810550000000     0.108990000000     0.221780000000     0          
C390     C      0.807040000000     0.086480000000     0.211430000000     0          
H391     H      0.818590000000     0.069890000000     0.217930000000     0          
C392     C      0.890470000000     0.049360000000     0.321840000000     0          
C393     C      0.894710000000     0.022730000000     0.327210000000     0          
C394     C      0.906900000000     0.013200000000     0.347200000000     0          
H395     H      0.915630000000     0.026230000000     0.361520000000     0          
O396     O      0.804690000000     0.091710000000     0.335450000000     0          
C397     C      0.789700000000     0.091900000000     0.320900000000     0          
O398     O      0.785000000000     0.088900000000     0.301000000000     0          
O399     O      0.817720000000     0.138930000000     0.371890000000     0          
S400     S      0.765660000000     0.178800000000     0.401200000000     0          
C401     C      0.743700000000     0.135800000000     0.396700000000     0          
C402     C      0.782700000000     0.153900000000     0.390700000000     0          
C403     C      0.808900000000     0.159700000000     0.377900000000     0          
C404     C      0.766200000000     0.132100000000     0.390300000000     0          
C405     C      0.739400000000     0.161500000000     0.405200000000     0          
H406     H      0.902260000000     0.073160000000     0.257460000000     0          
H407     H      0.851600000000     0.064870000000     0.289980000000     0          
H408     H      0.773930000000     0.073340000000     0.468990000000     0          
Zr409    Zr     0.212440000000     0.362170000000     0.408710000000     0          
Zr410    Zr     0.161220000000     0.332790000000     0.379570000000     0          
S411     S      0.085540000000     0.320490000000     0.434240000000     0          
O412     O      0.124570000000     0.378800000000     0.414710000000     0          
O413     O      0.128840000000     0.337680000000     0.406630000000     0          
O414     O      0.049510000000     0.288070000000     0.457690000000     0          
O415     O      0.025870000000     0.317400000000     0.475660000000     0          
O416     O      0.172850000000     0.297850000000     0.359110000000     0          
O417     O      0.209390000000     0.305490000000     0.339580000000     0          
O418     O      0.249070000000     0.327080000000     0.362600000000     0          
O419     O      0.247790000000     0.339250000000     0.402840000000     0          
O420     O      0.196410000000     0.376840000000     0.445370000000     0          
O421     O      0.162990000000     0.400440000000     0.435580000000     0          
O422     O      0.174400000000     0.361680000000     0.401570000000     0          
O423     O      0.202760000000     0.330660000000     0.383400000000     0          
O424     O      0.242540000000     0.381580000000     0.426840000000     0          
O425     O      0.210020000000     0.330920000000     0.435130000000     0          
O426     O      0.031010000000     0.253250000000     0.426660000000     0          
C427     C      0.118150000000     0.356250000000     0.416570000000     0          
C428     C      0.096190000000     0.350560000000     0.432010000000     0          
C429     C      0.082080000000     0.366600000000     0.445670000000     0          
H430     H      0.086730000000     0.387320000000     0.445850000000     0          
C431     C      0.062350000000     0.353840000000     0.458430000000     0          
H432     H      0.049190000000     0.364640000000     0.471130000000     0          
C433     C      0.061790000000     0.329300000000     0.453540000000     0          
C434     C      0.044290000000     0.310030000000     0.463300000000     0          
C435     C      0.189930000000     0.292840000000     0.343910000000     0          
C436     C      0.186730000000     0.269460000000     0.329450000000     0          
C437     C      0.199870000000     0.261200000000     0.309440000000     0          
H438     H      0.216400000000     0.272410000000     0.302230000000     0          
C439     C      0.256550000000     0.327050000000     0.384680000000     0          
C440     C      0.278220000000     0.310550000000     0.391010000000     0          
C441     C      0.288570000000     0.307040000000     0.413520000000     0          
H442     H      0.282070000000     0.318590000000     0.430110000000     0          
C443     C      0.178160000000     0.390470000000     0.450640000000     0          
C444     C      0.172790000000     0.394710000000     0.477270000000     0          
C445     C      0.152800000000     0.406900000000     0.486800000000     0          
H446     H      0.138480000000     0.415630000000     0.473770000000     0          
O447     O      0.164550000000     0.304690000000     0.408290000000     0          
C448     C      0.179100000000     0.289700000000     0.408100000000     0          
O449     O      0.199000000000     0.285000000000     0.411100000000     0          
O450     O      0.128110000000     0.317720000000     0.361070000000     0          
S451     S      0.098800000000     0.265660000000     0.321200000000     0          
C452     C      0.103300000000     0.243700000000     0.364200000000     0          
C453     C      0.109300000000     0.282700000000     0.346100000000     0          
C454     C      0.122100000000     0.308900000000     0.340300000000     0          
C455     C      0.109700000000     0.266200000000     0.367900000000     0          
C456     C      0.094800000000     0.239400000000     0.338500000000     0          
H457     H      0.242540000000     0.402260000000     0.426840000000     0          
H458     H      0.210020000000     0.351600000000     0.435130000000     0          
H459     H      0.031010000000     0.273930000000     0.426660000000     0          
Zr460    Zr     0.712440000000     0.862170000000     0.908710000000     0          
Zr461    Zr     0.661220000000     0.832790000000     0.879570000000     0          
S462     S      0.585540000000     0.820490000000     0.934240000000     0          
O463     O      0.624570000000     0.878800000000     0.914710000000     0          
O464     O      0.628840000000     0.837680000000     0.906630000000     0          
O465     O      0.549510000000     0.788070000000     0.957690000000     0          
O466     O      0.525870000000     0.817400000000     0.975660000000     0          
O467     O      0.672850000000     0.797850000000     0.859110000000     0          
O468     O      0.709390000000     0.805490000000     0.839580000000     0          
O469     O      0.749070000000     0.827080000000     0.862600000000     0          
O470     O      0.747790000000     0.839250000000     0.902840000000     0          
O471     O      0.696410000000     0.876840000000     0.945370000000     0          
O472     O      0.662990000000     0.900440000000     0.935580000000     0          
O473     O      0.674400000000     0.861680000000     0.901570000000     0          
O474     O      0.702760000000     0.830660000000     0.883400000000     0          
O475     O      0.742540000000     0.881580000000     0.926840000000     0          
O476     O      0.710020000000     0.830920000000     0.935130000000     0          
O477     O      0.531010000000     0.753250000000     0.926660000000     0          
C478     C      0.618150000000     0.856250000000     0.916570000000     0          
C479     C      0.596190000000     0.850560000000     0.932010000000     0          
C480     C      0.582080000000     0.866600000000     0.945670000000     0          
H481     H      0.586730000000     0.887320000000     0.945850000000     0          
C482     C      0.562350000000     0.853840000000     0.958430000000     0          
H483     H      0.549190000000     0.864640000000     0.971130000000     0          
C484     C      0.561790000000     0.829300000000     0.953540000000     0          
C485     C      0.544290000000     0.810030000000     0.963300000000     0          
C486     C      0.689930000000     0.792840000000     0.843910000000     0          
C487     C      0.686730000000     0.769460000000     0.829450000000     0          
C488     C      0.699870000000     0.761200000000     0.809440000000     0          
H489     H      0.716400000000     0.772410000000     0.802230000000     0          
C490     C      0.756550000000     0.827050000000     0.884680000000     0          
C491     C      0.778220000000     0.810550000000     0.891010000000     0          
C492     C      0.788570000000     0.807040000000     0.913520000000     0          
H493     H      0.782070000000     0.818590000000     0.930110000000     0          
C494     C      0.678160000000     0.890470000000     0.950640000000     0          
C495     C      0.672790000000     0.894710000000     0.977270000000     0          
C496     C      0.652800000000     0.906900000000     0.986800000000     0          
H497     H      0.638480000000     0.915630000000     0.973770000000     0          
O498     O      0.664550000000     0.804690000000     0.908290000000     0          
C499     C      0.679100000000     0.789700000000     0.908100000000     0          
O500     O      0.699000000000     0.785000000000     0.911100000000     0          
O501     O      0.628110000000     0.817720000000     0.861070000000     0          
S502     S      0.598800000000     0.765660000000     0.821200000000     0          
C503     C      0.603300000000     0.743700000000     0.864200000000     0          
C504     C      0.609300000000     0.782700000000     0.846100000000     0          
C505     C      0.622100000000     0.808900000000     0.840300000000     0          
C506     C      0.609700000000     0.766200000000     0.867900000000     0          
C507     C      0.594800000000     0.739400000000     0.838500000000     0          
H508     H      0.742540000000     0.902260000000     0.926840000000     0          
H509     H      0.710020000000     0.851600000000     0.935130000000     0          
H510     H      0.531010000000     0.773930000000     0.926660000000     0          
Zr511    Zr     0.212440000000     0.637830000000     0.591290000000     0          
Zr512    Zr     0.161220000000     0.667210000000     0.620430000000     0          
S513     S      0.085540000000     0.679510000000     0.565760000000     0          
O514     O      0.124570000000     0.621200000000     0.585290000000     0          
O515     O      0.128840000000     0.662320000000     0.593370000000     0          
O516     O      0.049510000000     0.711930000000     0.542310000000     0          
O517     O      0.025870000000     0.682600000000     0.524340000000     0          
O518     O      0.172850000000     0.702150000000     0.640890000000     0          
O519     O      0.209390000000     0.694510000000     0.660420000000     0          
O520     O      0.249070000000     0.672920000000     0.637400000000     0          
O521     O      0.247790000000     0.660750000000     0.597160000000     0          
O522     O      0.196410000000     0.623160000000     0.554630000000     0          
O523     O      0.162990000000     0.599560000000     0.564420000000     0          
O524     O      0.174400000000     0.638320000000     0.598430000000     0          
O525     O      0.202760000000     0.669340000000     0.616600000000     0          
O526     O      0.242540000000     0.618420000000     0.573160000000     0          
O527     O      0.210020000000     0.669080000000     0.564870000000     0          
O528     O      0.031010000000     0.746750000000     0.573340000000     0          
C529     C      0.118150000000     0.643750000000     0.583430000000     0          
C530     C      0.096190000000     0.649440000000     0.567990000000     0          
C531     C      0.082080000000     0.633400000000     0.554330000000     0          
H532     H      0.086730000000     0.612680000000     0.554150000000     0          
C533     C      0.062350000000     0.646160000000     0.541570000000     0          
H534     H      0.049190000000     0.635360000000     0.528870000000     0          
C535     C      0.061790000000     0.670700000000     0.546460000000     0          
C536     C      0.044290000000     0.689970000000     0.536700000000     0          
C537     C      0.189930000000     0.707160000000     0.656090000000     0          
C538     C      0.186730000000     0.730540000000     0.670550000000     0          
C539     C      0.199870000000     0.738800000000     0.690560000000     0          
H540     H      0.216400000000     0.727590000000     0.697770000000     0          
C541     C      0.256550000000     0.672950000000     0.615320000000     0          
C542     C      0.278220000000     0.689450000000     0.608990000000     0          
C543     C      0.288570000000     0.692960000000     0.586480000000     0          
H544     H      0.282070000000     0.681410000000     0.569890000000     0          
C545     C      0.178160000000     0.609530000000     0.549360000000     0          
C546     C      0.172790000000     0.605290000000     0.522730000000     0          
C547     C      0.152800000000     0.593100000000     0.513200000000     0          
H548     H      0.138480000000     0.584370000000     0.526230000000     0          
O549     O      0.164550000000     0.695310000000     0.591710000000     0          
C550     C      0.179100000000     0.710300000000     0.591900000000     0          
O551     O      0.199000000000     0.715000000000     0.588900000000     0          
O552     O      0.128110000000     0.682280000000     0.638930000000     0          
S553     S      0.098800000000     0.734340000000     0.678800000000     0          
C554     C      0.103300000000     0.756300000000     0.635800000000     0          
C555     C      0.109300000000     0.717300000000     0.653900000000     0          
C556     C      0.122100000000     0.691100000000     0.659700000000     0          
C557     C      0.109700000000     0.733800000000     0.632100000000     0          
C558     C      0.094800000000     0.760600000000     0.661500000000     0          
H559     H      0.242540000000     0.597740000000     0.573160000000     0          
H560     H      0.210020000000     0.648400000000     0.564870000000     0          
H561     H      0.031010000000     0.726070000000     0.573340000000     0          
Zr562    Zr     0.712440000000     0.137830000000     0.091290000000     0          
Zr563    Zr     0.661220000000     0.167210000000     0.120430000000     0          
S564     S      0.585540000000     0.179510000000     0.065760000000     0          
O565     O      0.624570000000     0.121200000000     0.085290000000     0          
O566     O      0.628840000000     0.162320000000     0.093370000000     0          
O567     O      0.549510000000     0.211930000000     0.042310000000     0          
O568     O      0.525870000000     0.182600000000     0.024340000000     0          
O569     O      0.672850000000     0.202150000000     0.140890000000     0          
O570     O      0.709390000000     0.194510000000     0.160420000000     0          
O571     O      0.749070000000     0.172920000000     0.137400000000     0          
O572     O      0.747790000000     0.160750000000     0.097160000000     0          
O573     O      0.696410000000     0.123160000000     0.054630000000     0          
O574     O      0.662990000000     0.099560000000     0.064420000000     0          
O575     O      0.674400000000     0.138320000000     0.098430000000     0          
O576     O      0.702760000000     0.169340000000     0.116600000000     0          
O577     O      0.742540000000     0.118420000000     0.073160000000     0          
O578     O      0.710020000000     0.169080000000     0.064870000000     0          
O579     O      0.531010000000     0.246750000000     0.073340000000     0          
C580     C      0.618150000000     0.143750000000     0.083430000000     0          
C581     C      0.596190000000     0.149440000000     0.067990000000     0          
C582     C      0.582080000000     0.133400000000     0.054330000000     0          
H583     H      0.586730000000     0.112680000000     0.054150000000     0          
C584     C      0.562350000000     0.146160000000     0.041570000000     0          
H585     H      0.549190000000     0.135360000000     0.028870000000     0          
C586     C      0.561790000000     0.170700000000     0.046460000000     0          
C587     C      0.544290000000     0.189970000000     0.036700000000     0          
C588     C      0.689930000000     0.207160000000     0.156090000000     0          
C589     C      0.686730000000     0.230540000000     0.170550000000     0          
C590     C      0.699870000000     0.238800000000     0.190560000000     0          
H591     H      0.716400000000     0.227590000000     0.197770000000     0          
C592     C      0.756550000000     0.172950000000     0.115320000000     0          
C593     C      0.778220000000     0.189450000000     0.108990000000     0          
C594     C      0.788570000000     0.192960000000     0.086480000000     0          
H595     H      0.782070000000     0.181410000000     0.069890000000     0          
C596     C      0.678160000000     0.109530000000     0.049360000000     0          
C597     C      0.672790000000     0.105290000000     0.022730000000     0          
C598     C      0.652800000000     0.093100000000     0.013200000000     0          
H599     H      0.638480000000     0.084370000000     0.026230000000     0          
O600     O      0.664550000000     0.195310000000     0.091710000000     0          
C601     C      0.679100000000     0.210300000000     0.091900000000     0          
O602     O      0.699000000000     0.215000000000     0.088900000000     0          
O603     O      0.628110000000     0.182280000000     0.138930000000     0          
S604     S      0.598800000000     0.234340000000     0.178800000000     0          
C605     C      0.603300000000     0.256300000000     0.135800000000     0          
C606     C      0.609300000000     0.217300000000     0.153900000000     0          
C607     C      0.622100000000     0.191100000000     0.159700000000     0          
C608     C      0.609700000000     0.233800000000     0.132100000000     0          
C609     C      0.594800000000     0.260600000000     0.161500000000     0          
H610     H      0.742540000000     0.097740000000     0.073160000000     0          
H611     H      0.710020000000     0.148400000000     0.064870000000     0          
H612     H      0.531010000000     0.226070000000     0.073340000000     0          
Zr613    Zr     0.787560000000     0.637830000000     0.408710000000     0          
Zr614    Zr     0.838780000000     0.667210000000     0.379570000000     0          
S615     S      0.914460000000     0.679510000000     0.434240000000     0          
O616     O      0.875430000000     0.621200000000     0.414710000000     0          
O617     O      0.871160000000     0.662320000000     0.406630000000     0          
O618     O      0.950490000000     0.711930000000     0.457690000000     0          
O619     O      0.974130000000     0.682600000000     0.475660000000     0          
O620     O      0.827150000000     0.702150000000     0.359110000000     0          
O621     O      0.790610000000     0.694510000000     0.339580000000     0          
O622     O      0.750930000000     0.672920000000     0.362600000000     0          
O623     O      0.752210000000     0.660750000000     0.402840000000     0          
O624     O      0.803590000000     0.623160000000     0.445370000000     0          
O625     O      0.837010000000     0.599560000000     0.435580000000     0          
O626     O      0.825600000000     0.638320000000     0.401570000000     0          
O627     O      0.797240000000     0.669340000000     0.383400000000     0          
O628     O      0.757460000000     0.618420000000     0.426840000000     0          
O629     O      0.789980000000     0.669080000000     0.435130000000     0          
O630     O      0.968990000000     0.746750000000     0.426660000000     0          
C631     C      0.881850000000     0.643750000000     0.416570000000     0          
C632     C      0.903810000000     0.649440000000     0.432010000000     0          
C633     C      0.917920000000     0.633400000000     0.445670000000     0          
H634     H      0.913270000000     0.612680000000     0.445850000000     0          
C635     C      0.937650000000     0.646160000000     0.458430000000     0          
H636     H      0.950810000000     0.635360000000     0.471130000000     0          
C637     C      0.938210000000     0.670700000000     0.453540000000     0          
C638     C      0.955710000000     0.689970000000     0.463300000000     0          
C639     C      0.810070000000     0.707160000000     0.343910000000     0          
C640     C      0.813270000000     0.730540000000     0.329450000000     0          
C641     C      0.800130000000     0.738800000000     0.309440000000     0          
H642     H      0.783600000000     0.727590000000     0.302230000000     0          
C643     C      0.743450000000     0.672950000000     0.384680000000     0          
C644     C      0.721780000000     0.689450000000     0.391010000000     0          
C645     C      0.711430000000     0.692960000000     0.413520000000     0          
H646     H      0.717930000000     0.681410000000     0.430110000000     0          
C647     C      0.821840000000     0.609530000000     0.450640000000     0          
C648     C      0.827210000000     0.605290000000     0.477270000000     0          
C649     C      0.847200000000     0.593100000000     0.486800000000     0          
H650     H      0.861520000000     0.584370000000     0.473770000000     0          
O651     O      0.835450000000     0.695310000000     0.408290000000     0          
C652     C      0.820900000000     0.710300000000     0.408100000000     0          
O653     O      0.801000000000     0.715000000000     0.411100000000     0          
O654     O      0.871890000000     0.682280000000     0.361070000000     0          
S655     S      0.901200000000     0.734340000000     0.321200000000     0          
C656     C      0.896700000000     0.756300000000     0.364200000000     0          
C657     C      0.890700000000     0.717300000000     0.346100000000     0          
C658     C      0.877900000000     0.691100000000     0.340300000000     0          
C659     C      0.890300000000     0.733800000000     0.367900000000     0          
C660     C      0.905200000000     0.760600000000     0.338500000000     0          
H661     H      0.757460000000     0.597740000000     0.426840000000     0          
H662     H      0.789980000000     0.648400000000     0.435130000000     0          
H663     H      0.968990000000     0.726070000000     0.426660000000     0          
Zr664    Zr     0.287560000000     0.137830000000     0.908710000000     0          
Zr665    Zr     0.338780000000     0.167210000000     0.879570000000     0          
S666     S      0.414460000000     0.179510000000     0.934240000000     0          
O667     O      0.375430000000     0.121200000000     0.914710000000     0          
O668     O      0.371160000000     0.162320000000     0.906630000000     0          
O669     O      0.450490000000     0.211930000000     0.957690000000     0          
O670     O      0.474130000000     0.182600000000     0.975660000000     0          
O671     O      0.327150000000     0.202150000000     0.859110000000     0          
O672     O      0.290610000000     0.194510000000     0.839580000000     0          
O673     O      0.250930000000     0.172920000000     0.862600000000     0          
O674     O      0.252210000000     0.160750000000     0.902840000000     0          
O675     O      0.303590000000     0.123160000000     0.945370000000     0          
O676     O      0.337010000000     0.099560000000     0.935580000000     0          
O677     O      0.325600000000     0.138320000000     0.901570000000     0          
O678     O      0.297240000000     0.169340000000     0.883400000000     0          
O679     O      0.257460000000     0.118420000000     0.926840000000     0          
O680     O      0.289980000000     0.169080000000     0.935130000000     0          
O681     O      0.468990000000     0.246750000000     0.926660000000     0          
C682     C      0.381850000000     0.143750000000     0.916570000000     0          
C683     C      0.403810000000     0.149440000000     0.932010000000     0          
C684     C      0.417920000000     0.133400000000     0.945670000000     0          
H685     H      0.413270000000     0.112680000000     0.945850000000     0          
C686     C      0.437650000000     0.146160000000     0.958430000000     0          
H687     H      0.450810000000     0.135360000000     0.971130000000     0          
C688     C      0.438210000000     0.170700000000     0.953540000000     0          
C689     C      0.455710000000     0.189970000000     0.963300000000     0          
C690     C      0.310070000000     0.207160000000     0.843910000000     0          
C691     C      0.313270000000     0.230540000000     0.829450000000     0          
C692     C      0.300130000000     0.238800000000     0.809440000000     0          
H693     H      0.283600000000     0.227590000000     0.802230000000     0          
C694     C      0.243450000000     0.172950000000     0.884680000000     0          
C695     C      0.221780000000     0.189450000000     0.891010000000     0          
C696     C      0.211430000000     0.192960000000     0.913520000000     0          
H697     H      0.217930000000     0.181410000000     0.930110000000     0          
C698     C      0.321840000000     0.109530000000     0.950640000000     0          
C699     C      0.327210000000     0.105290000000     0.977270000000     0          
C700     C      0.347200000000     0.093100000000     0.986800000000     0          
H701     H      0.361520000000     0.084370000000     0.973770000000     0          
O702     O      0.335450000000     0.195310000000     0.908290000000     0          
C703     C      0.320900000000     0.210300000000     0.908100000000     0          
O704     O      0.301000000000     0.215000000000     0.911100000000     0          
O705     O      0.371890000000     0.182280000000     0.861070000000     0          
S706     S      0.401200000000     0.234340000000     0.821200000000     0          
C707     C      0.396700000000     0.256300000000     0.864200000000     0          
C708     C      0.390700000000     0.217300000000     0.846100000000     0          
C709     C      0.377900000000     0.191100000000     0.840300000000     0          
C710     C      0.390300000000     0.233800000000     0.867900000000     0          
C711     C      0.405200000000     0.260600000000     0.838500000000     0          
H712     H      0.257460000000     0.097740000000     0.926840000000     0          
H713     H      0.289980000000     0.148400000000     0.935130000000     0          
H714     H      0.468990000000     0.226070000000     0.926660000000     0          
Zr715    Zr     0.787560000000     0.362170000000     0.591290000000     0          
Zr716    Zr     0.838780000000     0.332790000000     0.620430000000     0          
S717     S      0.914460000000     0.320490000000     0.565760000000     0          
O718     O      0.875430000000     0.378800000000     0.585290000000     0          
O719     O      0.871160000000     0.337680000000     0.593370000000     0          
O720     O      0.950490000000     0.288070000000     0.542310000000     0          
O721     O      0.974130000000     0.317400000000     0.524340000000     0          
O722     O      0.827150000000     0.297850000000     0.640890000000     0          
O723     O      0.790610000000     0.305490000000     0.660420000000     0          
O724     O      0.750930000000     0.327080000000     0.637400000000     0          
O725     O      0.752210000000     0.339250000000     0.597160000000     0          
O726     O      0.803590000000     0.376840000000     0.554630000000     0          
O727     O      0.837010000000     0.400440000000     0.564420000000     0          
O728     O      0.825600000000     0.361680000000     0.598430000000     0          
O729     O      0.797240000000     0.330660000000     0.616600000000     0          
O730     O      0.757460000000     0.381580000000     0.573160000000     0          
O731     O      0.789980000000     0.330920000000     0.564870000000     0          
O732     O      0.968990000000     0.253250000000     0.573340000000     0          
C733     C      0.881850000000     0.356250000000     0.583430000000     0          
C734     C      0.903810000000     0.350560000000     0.567990000000     0          
C735     C      0.917920000000     0.366600000000     0.554330000000     0          
H736     H      0.913270000000     0.387320000000     0.554150000000     0          
C737     C      0.937650000000     0.353840000000     0.541570000000     0          
H738     H      0.950810000000     0.364640000000     0.528870000000     0          
C739     C      0.938210000000     0.329300000000     0.546460000000     0          
C740     C      0.955710000000     0.310030000000     0.536700000000     0          
C741     C      0.810070000000     0.292840000000     0.656090000000     0          
C742     C      0.813270000000     0.269460000000     0.670550000000     0          
C743     C      0.800130000000     0.261200000000     0.690560000000     0          
H744     H      0.783600000000     0.272410000000     0.697770000000     0          
C745     C      0.743450000000     0.327050000000     0.615320000000     0          
C746     C      0.721780000000     0.310550000000     0.608990000000     0          
C747     C      0.711430000000     0.307040000000     0.586480000000     0          
H748     H      0.717930000000     0.318590000000     0.569890000000     0          
C749     C      0.821840000000     0.390470000000     0.549360000000     0          
C750     C      0.827210000000     0.394710000000     0.522730000000     0          
C751     C      0.847200000000     0.406900000000     0.513200000000     0          
H752     H      0.861520000000     0.415630000000     0.526230000000     0          
O753     O      0.835450000000     0.304690000000     0.591710000000     0          
C754     C      0.820900000000     0.289700000000     0.591900000000     0          
O755     O      0.801000000000     0.285000000000     0.588900000000     0          
O756     O      0.871890000000     0.317720000000     0.638930000000     0          
S757     S      0.901200000000     0.265660000000     0.678800000000     0          
C758     C      0.896700000000     0.243700000000     0.635800000000     0          
C759     C      0.890700000000     0.282700000000     0.653900000000     0          
C760     C      0.877900000000     0.308900000000     0.659700000000     0          
C761     C      0.890300000000     0.266200000000     0.632100000000     0          
C762     C      0.905200000000     0.239400000000     0.661500000000     0          
H763     H      0.757460000000     0.402260000000     0.573160000000     0          
H764     H      0.789980000000     0.351600000000     0.564870000000     0          
H765     H      0.968990000000     0.273930000000     0.573340000000     0          
Zr766    Zr     0.287560000000     0.862170000000     0.091290000000     0          
Zr767    Zr     0.338780000000     0.832790000000     0.120430000000     0          
S768     S      0.414460000000     0.820490000000     0.065760000000     0          
O769     O      0.375430000000     0.878800000000     0.085290000000     0          
O770     O      0.371160000000     0.837680000000     0.093370000000     0          
O771     O      0.450490000000     0.788070000000     0.042310000000     0          
O772     O      0.474130000000     0.817400000000     0.024340000000     0          
O773     O      0.327150000000     0.797850000000     0.140890000000     0          
O774     O      0.290610000000     0.805490000000     0.160420000000     0          
O775     O      0.250930000000     0.827080000000     0.137400000000     0          
O776     O      0.252210000000     0.839250000000     0.097160000000     0          
O777     O      0.303590000000     0.876840000000     0.054630000000     0          
O778     O      0.337010000000     0.900440000000     0.064420000000     0          
O779     O      0.325600000000     0.861680000000     0.098430000000     0          
O780     O      0.297240000000     0.830660000000     0.116600000000     0          
O781     O      0.257460000000     0.881580000000     0.073160000000     0          
O782     O      0.289980000000     0.830920000000     0.064870000000     0          
O783     O      0.468990000000     0.753250000000     0.073340000000     0          
C784     C      0.381850000000     0.856250000000     0.083430000000     0          
C785     C      0.403810000000     0.850560000000     0.067990000000     0          
C786     C      0.417920000000     0.866600000000     0.054330000000     0          
H787     H      0.413270000000     0.887320000000     0.054150000000     0          
C788     C      0.437650000000     0.853840000000     0.041570000000     0          
H789     H      0.450810000000     0.864640000000     0.028870000000     0          
C790     C      0.438210000000     0.829300000000     0.046460000000     0          
C791     C      0.455710000000     0.810030000000     0.036700000000     0          
C792     C      0.310070000000     0.792840000000     0.156090000000     0          
C793     C      0.313270000000     0.769460000000     0.170550000000     0          
C794     C      0.300130000000     0.761200000000     0.190560000000     0          
H795     H      0.283600000000     0.772410000000     0.197770000000     0          
C796     C      0.243450000000     0.827050000000     0.115320000000     0          
C797     C      0.221780000000     0.810550000000     0.108990000000     0          
C798     C      0.211430000000     0.807040000000     0.086480000000     0          
H799     H      0.217930000000     0.818590000000     0.069890000000     0          
C800     C      0.321840000000     0.890470000000     0.049360000000     0          
C801     C      0.327210000000     0.894710000000     0.022730000000     0          
C802     C      0.347200000000     0.906900000000     0.013200000000     0          
H803     H      0.361520000000     0.915630000000     0.026230000000     0          
O804     O      0.335450000000     0.804690000000     0.091710000000     0          
C805     C      0.320900000000     0.789700000000     0.091900000000     0          
O806     O      0.301000000000     0.785000000000     0.088900000000     0          
O807     O      0.371890000000     0.817720000000     0.138930000000     0          
S808     S      0.401200000000     0.765660000000     0.178800000000     0          
C809     C      0.396700000000     0.743700000000     0.135800000000     0          
C810     C      0.390700000000     0.782700000000     0.153900000000     0          
C811     C      0.377900000000     0.808900000000     0.159700000000     0          
C812     C      0.390300000000     0.766200000000     0.132100000000     0          
C813     C      0.405200000000     0.739400000000     0.161500000000     0          
H814     H      0.257460000000     0.902260000000     0.073160000000     0          
H815     H      0.289980000000     0.851600000000     0.064870000000     0          
H816     H      0.468990000000     0.773930000000     0.073340000000     0          
Zr817    Zr     0.408710000000     0.212440000000     0.362170000000     0          
Zr818    Zr     0.379570000000     0.161220000000     0.332790000000     0          
S819     S      0.434240000000     0.085540000000     0.320490000000     0          
O820     O      0.414710000000     0.124570000000     0.378800000000     0          
O821     O      0.406630000000     0.128840000000     0.337680000000     0          
O822     O      0.457690000000     0.049510000000     0.288070000000     0          
O823     O      0.475660000000     0.025870000000     0.317400000000     0          
O824     O      0.359110000000     0.172850000000     0.297850000000     0          
O825     O      0.339580000000     0.209390000000     0.305490000000     0          
O826     O      0.362600000000     0.249070000000     0.327080000000     0          
O827     O      0.402840000000     0.247790000000     0.339250000000     0          
O828     O      0.445370000000     0.196410000000     0.376840000000     0          
O829     O      0.435580000000     0.162990000000     0.400440000000     0          
O830     O      0.401570000000     0.174400000000     0.361680000000     0          
O831     O      0.383400000000     0.202760000000     0.330660000000     0          
O832     O      0.426840000000     0.242540000000     0.381580000000     0          
O833     O      0.435130000000     0.210020000000     0.330920000000     0          
O834     O      0.426660000000     0.031010000000     0.253250000000     0          
C835     C      0.416570000000     0.118150000000     0.356250000000     0          
C836     C      0.432010000000     0.096190000000     0.350560000000     0          
C837     C      0.445670000000     0.082080000000     0.366600000000     0          
H838     H      0.445850000000     0.086730000000     0.387320000000     0          
C839     C      0.458430000000     0.062350000000     0.353840000000     0          
H840     H      0.471130000000     0.049190000000     0.364640000000     0          
C841     C      0.453540000000     0.061790000000     0.329300000000     0          
C842     C      0.463300000000     0.044290000000     0.310030000000     0          
C843     C      0.343910000000     0.189930000000     0.292840000000     0          
C844     C      0.329450000000     0.186730000000     0.269460000000     0          
C845     C      0.309440000000     0.199870000000     0.261200000000     0          
H846     H      0.302230000000     0.216400000000     0.272410000000     0          
C847     C      0.384680000000     0.256550000000     0.327050000000     0          
C848     C      0.391010000000     0.278220000000     0.310550000000     0          
C849     C      0.413520000000     0.288570000000     0.307040000000     0          
H850     H      0.430110000000     0.282070000000     0.318590000000     0          
C851     C      0.450640000000     0.178160000000     0.390470000000     0          
C852     C      0.477270000000     0.172790000000     0.394710000000     0          
C853     C      0.486800000000     0.152800000000     0.406900000000     0          
H854     H      0.473770000000     0.138480000000     0.415630000000     0          
O855     O      0.408290000000     0.164550000000     0.304690000000     0          
C856     C      0.408100000000     0.179100000000     0.289700000000     0          
O857     O      0.411100000000     0.199000000000     0.285000000000     0          
O858     O      0.361070000000     0.128110000000     0.317720000000     0          
S859     S      0.321200000000     0.098800000000     0.265660000000     0          
C860     C      0.364200000000     0.103300000000     0.243700000000     0          
C861     C      0.346100000000     0.109300000000     0.282700000000     0          
C862     C      0.340300000000     0.122100000000     0.308900000000     0          
C863     C      0.367900000000     0.109700000000     0.266200000000     0          
C864     C      0.338500000000     0.094800000000     0.239400000000     0          
H865     H      0.426840000000     0.242540000000     0.402260000000     0          
H866     H      0.435130000000     0.210020000000     0.351600000000     0          
H867     H      0.426660000000     0.031010000000     0.273930000000     0          
Zr868    Zr     0.908710000000     0.712440000000     0.862170000000     0          
Zr869    Zr     0.879570000000     0.661220000000     0.832790000000     0          
S870     S      0.934240000000     0.585540000000     0.820490000000     0          
O871     O      0.914710000000     0.624570000000     0.878800000000     0          
O872     O      0.906630000000     0.628840000000     0.837680000000     0          
O873     O      0.957690000000     0.549510000000     0.788070000000     0          
O874     O      0.975660000000     0.525870000000     0.817400000000     0          
O875     O      0.859110000000     0.672850000000     0.797850000000     0          
O876     O      0.839580000000     0.709390000000     0.805490000000     0          
O877     O      0.862600000000     0.749070000000     0.827080000000     0          
O878     O      0.902840000000     0.747790000000     0.839250000000     0          
O879     O      0.945370000000     0.696410000000     0.876840000000     0          
O880     O      0.935580000000     0.662990000000     0.900440000000     0          
O881     O      0.901570000000     0.674400000000     0.861680000000     0          
O882     O      0.883400000000     0.702760000000     0.830660000000     0          
O883     O      0.926840000000     0.742540000000     0.881580000000     0          
O884     O      0.935130000000     0.710020000000     0.830920000000     0          
O885     O      0.926660000000     0.531010000000     0.753250000000     0          
C886     C      0.916570000000     0.618150000000     0.856250000000     0          
C887     C      0.932010000000     0.596190000000     0.850560000000     0          
C888     C      0.945670000000     0.582080000000     0.866600000000     0          
H889     H      0.945850000000     0.586730000000     0.887320000000     0          
C890     C      0.958430000000     0.562350000000     0.853840000000     0          
H891     H      0.971130000000     0.549190000000     0.864640000000     0          
C892     C      0.953540000000     0.561790000000     0.829300000000     0          
C893     C      0.963300000000     0.544290000000     0.810030000000     0          
C894     C      0.843910000000     0.689930000000     0.792840000000     0          
C895     C      0.829450000000     0.686730000000     0.769460000000     0          
C896     C      0.809440000000     0.699870000000     0.761200000000     0          
H897     H      0.802230000000     0.716400000000     0.772410000000     0          
C898     C      0.884680000000     0.756550000000     0.827050000000     0          
C899     C      0.891010000000     0.778220000000     0.810550000000     0          
C900     C      0.913520000000     0.788570000000     0.807040000000     0          
H901     H      0.930110000000     0.782070000000     0.818590000000     0          
C902     C      0.950640000000     0.678160000000     0.890470000000     0          
C903     C      0.977270000000     0.672790000000     0.894710000000     0          
C904     C      0.986800000000     0.652800000000     0.906900000000     0          
H905     H      0.973770000000     0.638480000000     0.915630000000     0          
O906     O      0.908290000000     0.664550000000     0.804690000000     0          
C907     C      0.908100000000     0.679100000000     0.789700000000     0          
O908     O      0.911100000000     0.699000000000     0.785000000000     0          
O909     O      0.861070000000     0.628110000000     0.817720000000     0          
S910     S      0.821200000000     0.598800000000     0.765660000000     0          
C911     C      0.864200000000     0.603300000000     0.743700000000     0          
C912     C      0.846100000000     0.609300000000     0.782700000000     0          
C913     C      0.840300000000     0.622100000000     0.808900000000     0          
C914     C      0.867900000000     0.609700000000     0.766200000000     0          
C915     C      0.838500000000     0.594800000000     0.739400000000     0          
H916     H      0.926840000000     0.742540000000     0.902260000000     0          
H917     H      0.935130000000     0.710020000000     0.851600000000     0          
H918     H      0.926660000000     0.531010000000     0.773930000000     0          
Zr919    Zr     0.591290000000     0.212440000000     0.637830000000     0          
Zr920    Zr     0.620430000000     0.161220000000     0.667210000000     0          
S921     S      0.565760000000     0.085540000000     0.679510000000     0          
O922     O      0.585290000000     0.124570000000     0.621200000000     0          
O923     O      0.593370000000     0.128840000000     0.662320000000     0          
O924     O      0.542310000000     0.049510000000     0.711930000000     0          
O925     O      0.524340000000     0.025870000000     0.682600000000     0          
O926     O      0.640890000000     0.172850000000     0.702150000000     0          
O927     O      0.660420000000     0.209390000000     0.694510000000     0          
O928     O      0.637400000000     0.249070000000     0.672920000000     0          
O929     O      0.597160000000     0.247790000000     0.660750000000     0          
O930     O      0.554630000000     0.196410000000     0.623160000000     0          
O931     O      0.564420000000     0.162990000000     0.599560000000     0          
O932     O      0.598430000000     0.174400000000     0.638320000000     0          
O933     O      0.616600000000     0.202760000000     0.669340000000     0          
O934     O      0.573160000000     0.242540000000     0.618420000000     0          
O935     O      0.564870000000     0.210020000000     0.669080000000     0          
O936     O      0.573340000000     0.031010000000     0.746750000000     0          
C937     C      0.583430000000     0.118150000000     0.643750000000     0          
C938     C      0.567990000000     0.096190000000     0.649440000000     0          
C939     C      0.554330000000     0.082080000000     0.633400000000     0          
H940     H      0.554150000000     0.086730000000     0.612680000000     0          
C941     C      0.541570000000     0.062350000000     0.646160000000     0          
H942     H      0.528870000000     0.049190000000     0.635360000000     0          
C943     C      0.546460000000     0.061790000000     0.670700000000     0          
C944     C      0.536700000000     0.044290000000     0.689970000000     0          
C945     C      0.656090000000     0.189930000000     0.707160000000     0          
C946     C      0.670550000000     0.186730000000     0.730540000000     0          
C947     C      0.690560000000     0.199870000000     0.738800000000     0          
H948     H      0.697770000000     0.216400000000     0.727590000000     0          
C949     C      0.615320000000     0.256550000000     0.672950000000     0          
C950     C      0.608990000000     0.278220000000     0.689450000000     0          
C951     C      0.586480000000     0.288570000000     0.692960000000     0          
H952     H      0.569890000000     0.282070000000     0.681410000000     0          
C953     C      0.549360000000     0.178160000000     0.609530000000     0          
C954     C      0.522730000000     0.172790000000     0.605290000000     0          
C955     C      0.513200000000     0.152800000000     0.593100000000     0          
H956     H      0.526230000000     0.138480000000     0.584370000000     0          
O957     O      0.591710000000     0.164550000000     0.695310000000     0          
C958     C      0.591900000000     0.179100000000     0.710300000000     0          
O959     O      0.588900000000     0.199000000000     0.715000000000     0          
O960     O      0.638930000000     0.128110000000     0.682280000000     0          
S961     S      0.678800000000     0.098800000000     0.734340000000     0          
C962     C      0.635800000000     0.103300000000     0.756300000000     0          
C963     C      0.653900000000     0.109300000000     0.717300000000     0          
C964     C      0.659700000000     0.122100000000     0.691100000000     0          
C965     C      0.632100000000     0.109700000000     0.733800000000     0          
C966     C      0.661500000000     0.094800000000     0.760600000000     0          
H967     H      0.573160000000     0.242540000000     0.597740000000     0          
H968     H      0.564870000000     0.210020000000     0.648400000000     0          
H969     H      0.573340000000     0.031010000000     0.726070000000     0          
Zr970    Zr     0.091290000000     0.712440000000     0.137830000000     0          
Zr971    Zr     0.120430000000     0.661220000000     0.167210000000     0          
S972     S      0.065760000000     0.585540000000     0.179510000000     0          
O973     O      0.085290000000     0.624570000000     0.121200000000     0          
O974     O      0.093370000000     0.628840000000     0.162320000000     0          
O975     O      0.042310000000     0.549510000000     0.211930000000     0          
O976     O      0.024340000000     0.525870000000     0.182600000000     0          
O977     O      0.140890000000     0.672850000000     0.202150000000     0          
O978     O      0.160420000000     0.709390000000     0.194510000000     0          
O979     O      0.137400000000     0.749070000000     0.172920000000     0          
O980     O      0.097160000000     0.747790000000     0.160750000000     0          
O981     O      0.054630000000     0.696410000000     0.123160000000     0          
O982     O      0.064420000000     0.662990000000     0.099560000000     0          
O983     O      0.098430000000     0.674400000000     0.138320000000     0          
O984     O      0.116600000000     0.702760000000     0.169340000000     0          
O985     O      0.073160000000     0.742540000000     0.118420000000     0          
O986     O      0.064870000000     0.710020000000     0.169080000000     0          
O987     O      0.073340000000     0.531010000000     0.246750000000     0          
C988     C      0.083430000000     0.618150000000     0.143750000000     0          
C989     C      0.067990000000     0.596190000000     0.149440000000     0          
C990     C      0.054330000000     0.582080000000     0.133400000000     0          
H991     H      0.054150000000     0.586730000000     0.112680000000     0          
C992     C      0.041570000000     0.562350000000     0.146160000000     0          
H993     H      0.028870000000     0.549190000000     0.135360000000     0          
C994     C      0.046460000000     0.561790000000     0.170700000000     0          
C995     C      0.036700000000     0.544290000000     0.189970000000     0          
C996     C      0.156090000000     0.689930000000     0.207160000000     0          
C997     C      0.170550000000     0.686730000000     0.230540000000     0          
C998     C      0.190560000000     0.699870000000     0.238800000000     0          
H999     H      0.197770000000     0.716400000000     0.227590000000     0          
C1000    C      0.115320000000     0.756550000000     0.172950000000     0          
C1001    C      0.108990000000     0.778220000000     0.189450000000     0          
C1002    C      0.086480000000     0.788570000000     0.192960000000     0          
H1003    H      0.069890000000     0.782070000000     0.181410000000     0          
C1004    C      0.049360000000     0.678160000000     0.109530000000     0          
C1005    C      0.022730000000     0.672790000000     0.105290000000     0          
C1006    C      0.013200000000     0.652800000000     0.093100000000     0          
H1007    H      0.026230000000     0.638480000000     0.084370000000     0          
O1008    O      0.091710000000     0.664550000000     0.195310000000     0          
C1009    C      0.091900000000     0.679100000000     0.210300000000     0          
O1010    O      0.088900000000     0.699000000000     0.215000000000     0          
O1011    O      0.138930000000     0.628110000000     0.182280000000     0          
S1012    S      0.178800000000     0.598800000000     0.234340000000     0          
C1013    C      0.135800000000     0.603300000000     0.256300000000     0          
C1014    C      0.153900000000     0.609300000000     0.217300000000     0          
C1015    C      0.159700000000     0.622100000000     0.191100000000     0          
C1016    C      0.132100000000     0.609700000000     0.233800000000     0          
C1017    C      0.161500000000     0.594800000000     0.260600000000     0          
H1018    H      0.073160000000     0.742540000000     0.097740000000     0          
H1019    H      0.064870000000     0.710020000000     0.148400000000     0          
H1020    H      0.073340000000     0.531010000000     0.226070000000     0          
Zr1021   Zr     0.408710000000     0.787560000000     0.637830000000     0          
Zr1022   Zr     0.379570000000     0.838780000000     0.667210000000     0          
S1023    S      0.434240000000     0.914460000000     0.679510000000     0          
O1024    O      0.414710000000     0.875430000000     0.621200000000     0          
O1025    O      0.406630000000     0.871160000000     0.662320000000     0          
O1026    O      0.457690000000     0.950490000000     0.711930000000     0          
O1027    O      0.475660000000     0.974130000000     0.682600000000     0          
O1028    O      0.359110000000     0.827150000000     0.702150000000     0          
O1029    O      0.339580000000     0.790610000000     0.694510000000     0          
O1030    O      0.362600000000     0.750930000000     0.672920000000     0          
O1031    O      0.402840000000     0.752210000000     0.660750000000     0          
O1032    O      0.445370000000     0.803590000000     0.623160000000     0          
O1033    O      0.435580000000     0.837010000000     0.599560000000     0          
O1034    O      0.401570000000     0.825600000000     0.638320000000     0          
O1035    O      0.383400000000     0.797240000000     0.669340000000     0          
O1036    O      0.426840000000     0.757460000000     0.618420000000     0          
O1037    O      0.435130000000     0.789980000000     0.669080000000     0          
O1038    O      0.426660000000     0.968990000000     0.746750000000     0          
C1039    C      0.416570000000     0.881850000000     0.643750000000     0          
C1040    C      0.432010000000     0.903810000000     0.649440000000     0          
C1041    C      0.445670000000     0.917920000000     0.633400000000     0          
H1042    H      0.445850000000     0.913270000000     0.612680000000     0          
C1043    C      0.458430000000     0.937650000000     0.646160000000     0          
H1044    H      0.471130000000     0.950810000000     0.635360000000     0          
C1045    C      0.453540000000     0.938210000000     0.670700000000     0          
C1046    C      0.463300000000     0.955710000000     0.689970000000     0          
C1047    C      0.343910000000     0.810070000000     0.707160000000     0          
C1048    C      0.329450000000     0.813270000000     0.730540000000     0          
C1049    C      0.309440000000     0.800130000000     0.738800000000     0          
H1050    H      0.302230000000     0.783600000000     0.727590000000     0          
C1051    C      0.384680000000     0.743450000000     0.672950000000     0          
C1052    C      0.391010000000     0.721780000000     0.689450000000     0          
C1053    C      0.413520000000     0.711430000000     0.692960000000     0          
H1054    H      0.430110000000     0.717930000000     0.681410000000     0          
C1055    C      0.450640000000     0.821840000000     0.609530000000     0          
C1056    C      0.477270000000     0.827210000000     0.605290000000     0          
C1057    C      0.486800000000     0.847200000000     0.593100000000     0          
H1058    H      0.473770000000     0.861520000000     0.584370000000     0          
O1059    O      0.408290000000     0.835450000000     0.695310000000     0          
C1060    C      0.408100000000     0.820900000000     0.710300000000     0          
O1061    O      0.411100000000     0.801000000000     0.715000000000     0          
O1062    O      0.361070000000     0.871890000000     0.682280000000     0          
S1063    S      0.321200000000     0.901200000000     0.734340000000     0          
C1064    C      0.364200000000     0.896700000000     0.756300000000     0          
C1065    C      0.346100000000     0.890700000000     0.717300000000     0          
C1066    C      0.340300000000     0.877900000000     0.691100000000     0          
C1067    C      0.367900000000     0.890300000000     0.733800000000     0          
C1068    C      0.338500000000     0.905200000000     0.760600000000     0          
H1069    H      0.426840000000     0.757460000000     0.597740000000     0          
H1070    H      0.435130000000     0.789980000000     0.648400000000     0          
H1071    H      0.426660000000     0.968990000000     0.726070000000     0          
Zr1072   Zr     0.908710000000     0.287560000000     0.137830000000     0          
Zr1073   Zr     0.879570000000     0.338780000000     0.167210000000     0          
S1074    S      0.934240000000     0.414460000000     0.179510000000     0          
O1075    O      0.914710000000     0.375430000000     0.121200000000     0          
O1076    O      0.906630000000     0.371160000000     0.162320000000     0          
O1077    O      0.957690000000     0.450490000000     0.211930000000     0          
O1078    O      0.975660000000     0.474130000000     0.182600000000     0          
O1079    O      0.859110000000     0.327150000000     0.202150000000     0          
O1080    O      0.839580000000     0.290610000000     0.194510000000     0          
O1081    O      0.862600000000     0.250930000000     0.172920000000     0          
O1082    O      0.902840000000     0.252210000000     0.160750000000     0          
O1083    O      0.945370000000     0.303590000000     0.123160000000     0          
O1084    O      0.935580000000     0.337010000000     0.099560000000     0          
O1085    O      0.901570000000     0.325600000000     0.138320000000     0          
O1086    O      0.883400000000     0.297240000000     0.169340000000     0          
O1087    O      0.926840000000     0.257460000000     0.118420000000     0          
O1088    O      0.935130000000     0.289980000000     0.169080000000     0          
O1089    O      0.926660000000     0.468990000000     0.246750000000     0          
C1090    C      0.916570000000     0.381850000000     0.143750000000     0          
C1091    C      0.932010000000     0.403810000000     0.149440000000     0          
C1092    C      0.945670000000     0.417920000000     0.133400000000     0          
H1093    H      0.945850000000     0.413270000000     0.112680000000     0          
C1094    C      0.958430000000     0.437650000000     0.146160000000     0          
H1095    H      0.971130000000     0.450810000000     0.135360000000     0          
C1096    C      0.953540000000     0.438210000000     0.170700000000     0          
C1097    C      0.963300000000     0.455710000000     0.189970000000     0          
C1098    C      0.843910000000     0.310070000000     0.207160000000     0          
C1099    C      0.829450000000     0.313270000000     0.230540000000     0          
C1100    C      0.809440000000     0.300130000000     0.238800000000     0          
H1101    H      0.802230000000     0.283600000000     0.227590000000     0          
C1102    C      0.884680000000     0.243450000000     0.172950000000     0          
C1103    C      0.891010000000     0.221780000000     0.189450000000     0          
C1104    C      0.913520000000     0.211430000000     0.192960000000     0          
H1105    H      0.930110000000     0.217930000000     0.181410000000     0          
C1106    C      0.950640000000     0.321840000000     0.109530000000     0          
C1107    C      0.977270000000     0.327210000000     0.105290000000     0          
C1108    C      0.986800000000     0.347200000000     0.093100000000     0          
H1109    H      0.973770000000     0.361520000000     0.084370000000     0          
O1110    O      0.908290000000     0.335450000000     0.195310000000     0          
C1111    C      0.908100000000     0.320900000000     0.210300000000     0          
O1112    O      0.911100000000     0.301000000000     0.215000000000     0          
O1113    O      0.861070000000     0.371890000000     0.182280000000     0          
S1114    S      0.821200000000     0.401200000000     0.234340000000     0          
C1115    C      0.864200000000     0.396700000000     0.256300000000     0          
C1116    C      0.846100000000     0.390700000000     0.217300000000     0          
C1117    C      0.840300000000     0.377900000000     0.191100000000     0          
C1118    C      0.867900000000     0.390300000000     0.233800000000     0          
C1119    C      0.838500000000     0.405200000000     0.260600000000     0          
H1120    H      0.926840000000     0.257460000000     0.097740000000     0          
H1121    H      0.935130000000     0.289980000000     0.148400000000     0          
H1122    H      0.926660000000     0.468990000000     0.226070000000     0          
Zr1123   Zr     0.591290000000     0.787560000000     0.362170000000     0          
Zr1124   Zr     0.620430000000     0.838780000000     0.332790000000     0          
S1125    S      0.565760000000     0.914460000000     0.320490000000     0          
O1126    O      0.585290000000     0.875430000000     0.378800000000     0          
O1127    O      0.593370000000     0.871160000000     0.337680000000     0          
O1128    O      0.542310000000     0.950490000000     0.288070000000     0          
O1129    O      0.524340000000     0.974130000000     0.317400000000     0          
O1130    O      0.640890000000     0.827150000000     0.297850000000     0          
O1131    O      0.660420000000     0.790610000000     0.305490000000     0          
O1132    O      0.637400000000     0.750930000000     0.327080000000     0          
O1133    O      0.597160000000     0.752210000000     0.339250000000     0          
O1134    O      0.554630000000     0.803590000000     0.376840000000     0          
O1135    O      0.564420000000     0.837010000000     0.400440000000     0          
O1136    O      0.598430000000     0.825600000000     0.361680000000     0          
O1137    O      0.616600000000     0.797240000000     0.330660000000     0          
O1138    O      0.573160000000     0.757460000000     0.381580000000     0          
O1139    O      0.564870000000     0.789980000000     0.330920000000     0          
O1140    O      0.573340000000     0.968990000000     0.253250000000     0          
C1141    C      0.583430000000     0.881850000000     0.356250000000     0          
C1142    C      0.567990000000     0.903810000000     0.350560000000     0          
C1143    C      0.554330000000     0.917920000000     0.366600000000     0          
H1144    H      0.554150000000     0.913270000000     0.387320000000     0          
C1145    C      0.541570000000     0.937650000000     0.353840000000     0          
H1146    H      0.528870000000     0.950810000000     0.364640000000     0          
C1147    C      0.546460000000     0.938210000000     0.329300000000     0          
C1148    C      0.536700000000     0.955710000000     0.310030000000     0          
C1149    C      0.656090000000     0.810070000000     0.292840000000     0          
C1150    C      0.670550000000     0.813270000000     0.269460000000     0          
C1151    C      0.690560000000     0.800130000000     0.261200000000     0          
H1152    H      0.697770000000     0.783600000000     0.272410000000     0          
C1153    C      0.615320000000     0.743450000000     0.327050000000     0          
C1154    C      0.608990000000     0.721780000000     0.310550000000     0          
C1155    C      0.586480000000     0.711430000000     0.307040000000     0          
H1156    H      0.569890000000     0.717930000000     0.318590000000     0          
C1157    C      0.549360000000     0.821840000000     0.390470000000     0          
C1158    C      0.522730000000     0.827210000000     0.394710000000     0          
C1159    C      0.513200000000     0.847200000000     0.406900000000     0          
H1160    H      0.526230000000     0.861520000000     0.415630000000     0          
O1161    O      0.591710000000     0.835450000000     0.304690000000     0          
C1162    C      0.591900000000     0.820900000000     0.289700000000     0          
O1163    O      0.588900000000     0.801000000000     0.285000000000     0          
O1164    O      0.638930000000     0.871890000000     0.317720000000     0          
S1165    S      0.678800000000     0.901200000000     0.265660000000     0          
C1166    C      0.635800000000     0.896700000000     0.243700000000     0          
C1167    C      0.653900000000     0.890700000000     0.282700000000     0          
C1168    C      0.659700000000     0.877900000000     0.308900000000     0          
C1169    C      0.632100000000     0.890300000000     0.266200000000     0          
C1170    C      0.661500000000     0.905200000000     0.239400000000     0          
H1171    H      0.573160000000     0.757460000000     0.402260000000     0          
H1172    H      0.564870000000     0.789980000000     0.351600000000     0          
H1173    H      0.573340000000     0.968990000000     0.273930000000     0          
Zr1174   Zr     0.091290000000     0.287560000000     0.862170000000     0          
Zr1175   Zr     0.120430000000     0.338780000000     0.832790000000     0          
S1176    S      0.065760000000     0.414460000000     0.820490000000     0          
O1177    O      0.085290000000     0.375430000000     0.878800000000     0          
O1178    O      0.093370000000     0.371160000000     0.837680000000     0          
O1179    O      0.042310000000     0.450490000000     0.788070000000     0          
O1180    O      0.024340000000     0.474130000000     0.817400000000     0          
O1181    O      0.140890000000     0.327150000000     0.797850000000     0          
O1182    O      0.160420000000     0.290610000000     0.805490000000     0          
O1183    O      0.137400000000     0.250930000000     0.827080000000     0          
O1184    O      0.097160000000     0.252210000000     0.839250000000     0          
O1185    O      0.054630000000     0.303590000000     0.876840000000     0          
O1186    O      0.064420000000     0.337010000000     0.900440000000     0          
O1187    O      0.098430000000     0.325600000000     0.861680000000     0          
O1188    O      0.116600000000     0.297240000000     0.830660000000     0          
O1189    O      0.073160000000     0.257460000000     0.881580000000     0          
O1190    O      0.064870000000     0.289980000000     0.830920000000     0          
O1191    O      0.073340000000     0.468990000000     0.753250000000     0          
C1192    C      0.083430000000     0.381850000000     0.856250000000     0          
C1193    C      0.067990000000     0.403810000000     0.850560000000     0          
C1194    C      0.054330000000     0.417920000000     0.866600000000     0          
H1195    H      0.054150000000     0.413270000000     0.887320000000     0          
C1196    C      0.041570000000     0.437650000000     0.853840000000     0          
H1197    H      0.028870000000     0.450810000000     0.864640000000     0          
C1198    C      0.046460000000     0.438210000000     0.829300000000     0          
C1199    C      0.036700000000     0.455710000000     0.810030000000     0          
C1200    C      0.156090000000     0.310070000000     0.792840000000     0          
C1201    C      0.170550000000     0.313270000000     0.769460000000     0          
C1202    C      0.190560000000     0.300130000000     0.761200000000     0          
H1203    H      0.197770000000     0.283600000000     0.772410000000     0          
C1204    C      0.115320000000     0.243450000000     0.827050000000     0          
C1205    C      0.108990000000     0.221780000000     0.810550000000     0          
C1206    C      0.086480000000     0.211430000000     0.807040000000     0          
H1207    H      0.069890000000     0.217930000000     0.818590000000     0          
C1208    C      0.049360000000     0.321840000000     0.890470000000     0          
C1209    C      0.022730000000     0.327210000000     0.894710000000     0          
C1210    C      0.013200000000     0.347200000000     0.906900000000     0          
H1211    H      0.026230000000     0.361520000000     0.915630000000     0          
O1212    O      0.091710000000     0.335450000000     0.804690000000     0          
C1213    C      0.091900000000     0.320900000000     0.789700000000     0          
O1214    O      0.088900000000     0.301000000000     0.785000000000     0          
O1215    O      0.138930000000     0.371890000000     0.817720000000     0          
S1216    S      0.178800000000     0.401200000000     0.765660000000     0          
C1217    C      0.135800000000     0.396700000000     0.743700000000     0          
C1218    C      0.153900000000     0.390700000000     0.782700000000     0          
C1219    C      0.159700000000     0.377900000000     0.808900000000     0          
C1220    C      0.132100000000     0.390300000000     0.766200000000     0          
C1221    C      0.161500000000     0.405200000000     0.739400000000     0          
H1222    H      0.073160000000     0.257460000000     0.902260000000     0          
H1223    H      0.064870000000     0.289980000000     0.851600000000     0          
H1224    H      0.073340000000     0.468990000000     0.773930000000     0          
Zr1225   Zr     0.408710000000     0.362170000000     0.787560000000     0          
Zr1226   Zr     0.379570000000     0.332790000000     0.838780000000     0          
S1227    S      0.434240000000     0.320490000000     0.914460000000     0          
O1228    O      0.414710000000     0.378800000000     0.875430000000     0          
O1229    O      0.406630000000     0.337680000000     0.871160000000     0          
O1230    O      0.457690000000     0.288070000000     0.950490000000     0          
O1231    O      0.475660000000     0.317400000000     0.974130000000     0          
O1232    O      0.359110000000     0.297850000000     0.827150000000     0          
O1233    O      0.339580000000     0.305490000000     0.790610000000     0          
O1234    O      0.362600000000     0.327080000000     0.750930000000     0          
O1235    O      0.402840000000     0.339250000000     0.752210000000     0          
O1236    O      0.445370000000     0.376840000000     0.803590000000     0          
O1237    O      0.435580000000     0.400440000000     0.837010000000     0          
O1238    O      0.401570000000     0.361680000000     0.825600000000     0          
O1239    O      0.383400000000     0.330660000000     0.797240000000     0          
O1240    O      0.426840000000     0.381580000000     0.757460000000     0          
O1241    O      0.435130000000     0.330920000000     0.789980000000     0          
O1242    O      0.426660000000     0.253250000000     0.968990000000     0          
C1243    C      0.416570000000     0.356250000000     0.881850000000     0          
C1244    C      0.432010000000     0.350560000000     0.903810000000     0          
C1245    C      0.445670000000     0.366600000000     0.917920000000     0          
H1246    H      0.445850000000     0.387320000000     0.913270000000     0          
C1247    C      0.458430000000     0.353840000000     0.937650000000     0          
H1248    H      0.471130000000     0.364640000000     0.950810000000     0          
C1249    C      0.453540000000     0.329300000000     0.938210000000     0          
C1250    C      0.463300000000     0.310030000000     0.955710000000     0          
C1251    C      0.343910000000     0.292840000000     0.810070000000     0          
C1252    C      0.329450000000     0.269460000000     0.813270000000     0          
C1253    C      0.309440000000     0.261200000000     0.800130000000     0          
H1254    H      0.302230000000     0.272410000000     0.783600000000     0          
C1255    C      0.384680000000     0.327050000000     0.743450000000     0          
C1256    C      0.391010000000     0.310550000000     0.721780000000     0          
C1257    C      0.413520000000     0.307040000000     0.711430000000     0          
H1258    H      0.430110000000     0.318590000000     0.717930000000     0          
C1259    C      0.450640000000     0.390470000000     0.821840000000     0          
C1260    C      0.477270000000     0.394710000000     0.827210000000     0          
C1261    C      0.486800000000     0.406900000000     0.847200000000     0          
H1262    H      0.473770000000     0.415630000000     0.861520000000     0          
O1263    O      0.408290000000     0.304690000000     0.835450000000     0          
C1264    C      0.408100000000     0.289700000000     0.820900000000     0          
O1265    O      0.411100000000     0.285000000000     0.801000000000     0          
O1266    O      0.361070000000     0.317720000000     0.871890000000     0          
S1267    S      0.321200000000     0.265660000000     0.901200000000     0          
C1268    C      0.364200000000     0.243700000000     0.896700000000     0          
C1269    C      0.346100000000     0.282700000000     0.890700000000     0          
C1270    C      0.340300000000     0.308900000000     0.877900000000     0          
C1271    C      0.367900000000     0.266200000000     0.890300000000     0          
C1272    C      0.338500000000     0.239400000000     0.905200000000     0          
H1273    H      0.426840000000     0.402260000000     0.757460000000     0          
H1274    H      0.435130000000     0.351600000000     0.789980000000     0          
H1275    H      0.426660000000     0.273930000000     0.968990000000     0          
Zr1276   Zr     0.908710000000     0.862170000000     0.287560000000     0          
Zr1277   Zr     0.879570000000     0.832790000000     0.338780000000     0          
S1278    S      0.934240000000     0.820490000000     0.414460000000     0          
O1279    O      0.914710000000     0.878800000000     0.375430000000     0          
O1280    O      0.906630000000     0.837680000000     0.371160000000     0          
O1281    O      0.957690000000     0.788070000000     0.450490000000     0          
O1282    O      0.975660000000     0.817400000000     0.474130000000     0          
O1283    O      0.859110000000     0.797850000000     0.327150000000     0          
O1284    O      0.839580000000     0.805490000000     0.290610000000     0          
O1285    O      0.862600000000     0.827080000000     0.250930000000     0          
O1286    O      0.902840000000     0.839250000000     0.252210000000     0          
O1287    O      0.945370000000     0.876840000000     0.303590000000     0          
O1288    O      0.935580000000     0.900440000000     0.337010000000     0          
O1289    O      0.901570000000     0.861680000000     0.325600000000     0          
O1290    O      0.883400000000     0.830660000000     0.297240000000     0          
O1291    O      0.926840000000     0.881580000000     0.257460000000     0          
O1292    O      0.935130000000     0.830920000000     0.289980000000     0          
O1293    O      0.926660000000     0.753250000000     0.468990000000     0          
C1294    C      0.916570000000     0.856250000000     0.381850000000     0          
C1295    C      0.932010000000     0.850560000000     0.403810000000     0          
C1296    C      0.945670000000     0.866600000000     0.417920000000     0          
H1297    H      0.945850000000     0.887320000000     0.413270000000     0          
C1298    C      0.958430000000     0.853840000000     0.437650000000     0          
H1299    H      0.971130000000     0.864640000000     0.450810000000     0          
C1300    C      0.953540000000     0.829300000000     0.438210000000     0          
C1301    C      0.963300000000     0.810030000000     0.455710000000     0          
C1302    C      0.843910000000     0.792840000000     0.310070000000     0          
C1303    C      0.829450000000     0.769460000000     0.313270000000     0          
C1304    C      0.809440000000     0.761200000000     0.300130000000     0          
H1305    H      0.802230000000     0.772410000000     0.283600000000     0          
C1306    C      0.884680000000     0.827050000000     0.243450000000     0          
C1307    C      0.891010000000     0.810550000000     0.221780000000     0          
C1308    C      0.913520000000     0.807040000000     0.211430000000     0          
H1309    H      0.930110000000     0.818590000000     0.217930000000     0          
C1310    C      0.950640000000     0.890470000000     0.321840000000     0          
C1311    C      0.977270000000     0.894710000000     0.327210000000     0          
C1312    C      0.986800000000     0.906900000000     0.347200000000     0          
H1313    H      0.973770000000     0.915630000000     0.361520000000     0          
O1314    O      0.908290000000     0.804690000000     0.335450000000     0          
C1315    C      0.908100000000     0.789700000000     0.320900000000     0          
O1316    O      0.911100000000     0.785000000000     0.301000000000     0          
O1317    O      0.861070000000     0.817720000000     0.371890000000     0          
S1318    S      0.821200000000     0.765660000000     0.401200000000     0          
C1319    C      0.864200000000     0.743700000000     0.396700000000     0          
C1320    C      0.846100000000     0.782700000000     0.390700000000     0          
C1321    C      0.840300000000     0.808900000000     0.377900000000     0          
C1322    C      0.867900000000     0.766200000000     0.390300000000     0          
C1323    C      0.838500000000     0.739400000000     0.405200000000     0          
H1324    H      0.926840000000     0.902260000000     0.257460000000     0          
H1325    H      0.935130000000     0.851600000000     0.289980000000     0          
H1326    H      0.926660000000     0.773930000000     0.468990000000     0          
Zr1327   Zr     0.591290000000     0.637830000000     0.787560000000     0          
Zr1328   Zr     0.620430000000     0.667210000000     0.838780000000     0          
S1329    S      0.565760000000     0.679510000000     0.914460000000     0          
O1330    O      0.585290000000     0.621200000000     0.875430000000     0          
O1331    O      0.593370000000     0.662320000000     0.871160000000     0          
O1332    O      0.542310000000     0.711930000000     0.950490000000     0          
O1333    O      0.524340000000     0.682600000000     0.974130000000     0          
O1334    O      0.640890000000     0.702150000000     0.827150000000     0          
O1335    O      0.660420000000     0.694510000000     0.790610000000     0          
O1336    O      0.637400000000     0.672920000000     0.750930000000     0          
O1337    O      0.597160000000     0.660750000000     0.752210000000     0          
O1338    O      0.554630000000     0.623160000000     0.803590000000     0          
O1339    O      0.564420000000     0.599560000000     0.837010000000     0          
O1340    O      0.598430000000     0.638320000000     0.825600000000     0          
O1341    O      0.616600000000     0.669340000000     0.797240000000     0          
O1342    O      0.573160000000     0.618420000000     0.757460000000     0          
O1343    O      0.564870000000     0.669080000000     0.789980000000     0          
O1344    O      0.573340000000     0.746750000000     0.968990000000     0          
C1345    C      0.583430000000     0.643750000000     0.881850000000     0          
C1346    C      0.567990000000     0.649440000000     0.903810000000     0          
C1347    C      0.554330000000     0.633400000000     0.917920000000     0          
H1348    H      0.554150000000     0.612680000000     0.913270000000     0          
C1349    C      0.541570000000     0.646160000000     0.937650000000     0          
H1350    H      0.528870000000     0.635360000000     0.950810000000     0          
C1351    C      0.546460000000     0.670700000000     0.938210000000     0          
C1352    C      0.536700000000     0.689970000000     0.955710000000     0          
C1353    C      0.656090000000     0.707160000000     0.810070000000     0          
C1354    C      0.670550000000     0.730540000000     0.813270000000     0          
C1355    C      0.690560000000     0.738800000000     0.800130000000     0          
H1356    H      0.697770000000     0.727590000000     0.783600000000     0          
C1357    C      0.615320000000     0.672950000000     0.743450000000     0          
C1358    C      0.608990000000     0.689450000000     0.721780000000     0          
C1359    C      0.586480000000     0.692960000000     0.711430000000     0          
H1360    H      0.569890000000     0.681410000000     0.717930000000     0          
C1361    C      0.549360000000     0.609530000000     0.821840000000     0          
C1362    C      0.522730000000     0.605290000000     0.827210000000     0          
C1363    C      0.513200000000     0.593100000000     0.847200000000     0          
H1364    H      0.526230000000     0.584370000000     0.861520000000     0          
O1365    O      0.591710000000     0.695310000000     0.835450000000     0          
C1366    C      0.591900000000     0.710300000000     0.820900000000     0          
O1367    O      0.588900000000     0.715000000000     0.801000000000     0          
O1368    O      0.638930000000     0.682280000000     0.871890000000     0          
S1369    S      0.678800000000     0.734340000000     0.901200000000     0          
C1370    C      0.635800000000     0.756300000000     0.896700000000     0          
C1371    C      0.653900000000     0.717300000000     0.890700000000     0          
C1372    C      0.659700000000     0.691100000000     0.877900000000     0          
C1373    C      0.632100000000     0.733800000000     0.890300000000     0          
C1374    C      0.661500000000     0.760600000000     0.905200000000     0          
H1375    H      0.573160000000     0.597740000000     0.757460000000     0          
H1376    H      0.564870000000     0.648400000000     0.789980000000     0          
H1377    H      0.573340000000     0.726070000000     0.968990000000     0          
Zr1378   Zr     0.091290000000     0.137830000000     0.287560000000     0          
Zr1379   Zr     0.120430000000     0.167210000000     0.338780000000     0          
S1380    S      0.065760000000     0.179510000000     0.414460000000     0          
O1381    O      0.085290000000     0.121200000000     0.375430000000     0          
O1382    O      0.093370000000     0.162320000000     0.371160000000     0          
O1383    O      0.042310000000     0.211930000000     0.450490000000     0          
O1384    O      0.024340000000     0.182600000000     0.474130000000     0          
O1385    O      0.140890000000     0.202150000000     0.327150000000     0          
O1386    O      0.160420000000     0.194510000000     0.290610000000     0          
O1387    O      0.137400000000     0.172920000000     0.250930000000     0          
O1388    O      0.097160000000     0.160750000000     0.252210000000     0          
O1389    O      0.054630000000     0.123160000000     0.303590000000     0          
O1390    O      0.064420000000     0.099560000000     0.337010000000     0          
O1391    O      0.098430000000     0.138320000000     0.325600000000     0          
O1392    O      0.116600000000     0.169340000000     0.297240000000     0          
O1393    O      0.073160000000     0.118420000000     0.257460000000     0          
O1394    O      0.064870000000     0.169080000000     0.289980000000     0          
O1395    O      0.073340000000     0.246750000000     0.468990000000     0          
C1396    C      0.083430000000     0.143750000000     0.381850000000     0          
C1397    C      0.067990000000     0.149440000000     0.403810000000     0          
C1398    C      0.054330000000     0.133400000000     0.417920000000     0          
H1399    H      0.054150000000     0.112680000000     0.413270000000     0          
C1400    C      0.041570000000     0.146160000000     0.437650000000     0          
H1401    H      0.028870000000     0.135360000000     0.450810000000     0          
C1402    C      0.046460000000     0.170700000000     0.438210000000     0          
C1403    C      0.036700000000     0.189970000000     0.455710000000     0          
C1404    C      0.156090000000     0.207160000000     0.310070000000     0          
C1405    C      0.170550000000     0.230540000000     0.313270000000     0          
C1406    C      0.190560000000     0.238800000000     0.300130000000     0          
H1407    H      0.197770000000     0.227590000000     0.283600000000     0          
C1408    C      0.115320000000     0.172950000000     0.243450000000     0          
C1409    C      0.108990000000     0.189450000000     0.221780000000     0          
C1410    C      0.086480000000     0.192960000000     0.211430000000     0          
H1411    H      0.069890000000     0.181410000000     0.217930000000     0          
C1412    C      0.049360000000     0.109530000000     0.321840000000     0          
C1413    C      0.022730000000     0.105290000000     0.327210000000     0          
C1414    C      0.013200000000     0.093100000000     0.347200000000     0          
H1415    H      0.026230000000     0.084370000000     0.361520000000     0          
O1416    O      0.091710000000     0.195310000000     0.335450000000     0          
C1417    C      0.091900000000     0.210300000000     0.320900000000     0          
O1418    O      0.088900000000     0.215000000000     0.301000000000     0          
O1419    O      0.138930000000     0.182280000000     0.371890000000     0          
S1420    S      0.178800000000     0.234340000000     0.401200000000     0          
C1421    C      0.135800000000     0.256300000000     0.396700000000     0          
C1422    C      0.153900000000     0.217300000000     0.390700000000     0          
C1423    C      0.159700000000     0.191100000000     0.377900000000     0          
C1424    C      0.132100000000     0.233800000000     0.390300000000     0          
C1425    C      0.161500000000     0.260600000000     0.405200000000     0          
H1426    H      0.073160000000     0.097740000000     0.257460000000     0          
H1427    H      0.064870000000     0.148400000000     0.289980000000     0          
H1428    H      0.073340000000     0.226070000000     0.468990000000     0          
Zr1429   Zr     0.408710000000     0.637830000000     0.212440000000     0          
Zr1430   Zr     0.379570000000     0.667210000000     0.161220000000     0          
S1431    S      0.434240000000     0.679510000000     0.085540000000     0          
O1432    O      0.414710000000     0.621200000000     0.124570000000     0          
O1433    O      0.406630000000     0.662320000000     0.128840000000     0          
O1434    O      0.457690000000     0.711930000000     0.049510000000     0          
O1435    O      0.475660000000     0.682600000000     0.025870000000     0          
O1436    O      0.359110000000     0.702150000000     0.172850000000     0          
O1437    O      0.339580000000     0.694510000000     0.209390000000     0          
O1438    O      0.362600000000     0.672920000000     0.249070000000     0          
O1439    O      0.402840000000     0.660750000000     0.247790000000     0          
O1440    O      0.445370000000     0.623160000000     0.196410000000     0          
O1441    O      0.435580000000     0.599560000000     0.162990000000     0          
O1442    O      0.401570000000     0.638320000000     0.174400000000     0          
O1443    O      0.383400000000     0.669340000000     0.202760000000     0          
O1444    O      0.426840000000     0.618420000000     0.242540000000     0          
O1445    O      0.435130000000     0.669080000000     0.210020000000     0          
O1446    O      0.426660000000     0.746750000000     0.031010000000     0          
C1447    C      0.416570000000     0.643750000000     0.118150000000     0          
C1448    C      0.432010000000     0.649440000000     0.096190000000     0          
C1449    C      0.445670000000     0.633400000000     0.082080000000     0          
H1450    H      0.445850000000     0.612680000000     0.086730000000     0          
C1451    C      0.458430000000     0.646160000000     0.062350000000     0          
H1452    H      0.471130000000     0.635360000000     0.049190000000     0          
C1453    C      0.453540000000     0.670700000000     0.061790000000     0          
C1454    C      0.463300000000     0.689970000000     0.044290000000     0          
C1455    C      0.343910000000     0.707160000000     0.189930000000     0          
C1456    C      0.329450000000     0.730540000000     0.186730000000     0          
C1457    C      0.309440000000     0.738800000000     0.199870000000     0          
H1458    H      0.302230000000     0.727590000000     0.216400000000     0          
C1459    C      0.384680000000     0.672950000000     0.256550000000     0          
C1460    C      0.391010000000     0.689450000000     0.278220000000     0          
C1461    C      0.413520000000     0.692960000000     0.288570000000     0          
H1462    H      0.430110000000     0.681410000000     0.282070000000     0          
C1463    C      0.450640000000     0.609530000000     0.178160000000     0          
C1464    C      0.477270000000     0.605290000000     0.172790000000     0          
C1465    C      0.486800000000     0.593100000000     0.152800000000     0          
H1466    H      0.473770000000     0.584370000000     0.138480000000     0          
O1467    O      0.408290000000     0.695310000000     0.164550000000     0          
C1468    C      0.408100000000     0.710300000000     0.179100000000     0          
O1469    O      0.411100000000     0.715000000000     0.199000000000     0          
O1470    O      0.361070000000     0.682280000000     0.128110000000     0          
S1471    S      0.321200000000     0.734340000000     0.098800000000     0          
C1472    C      0.364200000000     0.756300000000     0.103300000000     0          
C1473    C      0.346100000000     0.717300000000     0.109300000000     0          
C1474    C      0.340300000000     0.691100000000     0.122100000000     0          
C1475    C      0.367900000000     0.733800000000     0.109700000000     0          
C1476    C      0.338500000000     0.760600000000     0.094800000000     0          
H1477    H      0.426840000000     0.597740000000     0.242540000000     0          
H1478    H      0.435130000000     0.648400000000     0.210020000000     0          
H1479    H      0.426660000000     0.726070000000     0.031010000000     0          
Zr1480   Zr     0.908710000000     0.137830000000     0.712440000000     0          
Zr1481   Zr     0.879570000000     0.167210000000     0.661220000000     0          
S1482    S      0.934240000000     0.179510000000     0.585540000000     0          
O1483    O      0.914710000000     0.121200000000     0.624570000000     0          
O1484    O      0.906630000000     0.162320000000     0.628840000000     0          
O1485    O      0.957690000000     0.211930000000     0.549510000000     0          
O1486    O      0.975660000000     0.182600000000     0.525870000000     0          
O1487    O      0.859110000000     0.202150000000     0.672850000000     0          
O1488    O      0.839580000000     0.194510000000     0.709390000000     0          
O1489    O      0.862600000000     0.172920000000     0.749070000000     0          
O1490    O      0.902840000000     0.160750000000     0.747790000000     0          
O1491    O      0.945370000000     0.123160000000     0.696410000000     0          
O1492    O      0.935580000000     0.099560000000     0.662990000000     0          
O1493    O      0.901570000000     0.138320000000     0.674400000000     0          
O1494    O      0.883400000000     0.169340000000     0.702760000000     0          
O1495    O      0.926840000000     0.118420000000     0.742540000000     0          
O1496    O      0.935130000000     0.169080000000     0.710020000000     0          
O1497    O      0.926660000000     0.246750000000     0.531010000000     0          
C1498    C      0.916570000000     0.143750000000     0.618150000000     0          
C1499    C      0.932010000000     0.149440000000     0.596190000000     0          
C1500    C      0.945670000000     0.133400000000     0.582080000000     0          
H1501    H      0.945850000000     0.112680000000     0.586730000000     0          
C1502    C      0.958430000000     0.146160000000     0.562350000000     0          
H1503    H      0.971130000000     0.135360000000     0.549190000000     0          
C1504    C      0.953540000000     0.170700000000     0.561790000000     0          
C1505    C      0.963300000000     0.189970000000     0.544290000000     0          
C1506    C      0.843910000000     0.207160000000     0.689930000000     0          
C1507    C      0.829450000000     0.230540000000     0.686730000000     0          
C1508    C      0.809440000000     0.238800000000     0.699870000000     0          
H1509    H      0.802230000000     0.227590000000     0.716400000000     0          
C1510    C      0.884680000000     0.172950000000     0.756550000000     0          
C1511    C      0.891010000000     0.189450000000     0.778220000000     0          
C1512    C      0.913520000000     0.192960000000     0.788570000000     0          
H1513    H      0.930110000000     0.181410000000     0.782070000000     0          
C1514    C      0.950640000000     0.109530000000     0.678160000000     0          
C1515    C      0.977270000000     0.105290000000     0.672790000000     0          
C1516    C      0.986800000000     0.093100000000     0.652800000000     0          
H1517    H      0.973770000000     0.084370000000     0.638480000000     0          
O1518    O      0.908290000000     0.195310000000     0.664550000000     0          
C1519    C      0.908100000000     0.210300000000     0.679100000000     0          
O1520    O      0.911100000000     0.215000000000     0.699000000000     0          
O1521    O      0.861070000000     0.182280000000     0.628110000000     0          
S1522    S      0.821200000000     0.234340000000     0.598800000000     0          
C1523    C      0.864200000000     0.256300000000     0.603300000000     0          
C1524    C      0.846100000000     0.217300000000     0.609300000000     0          
C1525    C      0.840300000000     0.191100000000     0.622100000000     0          
C1526    C      0.867900000000     0.233800000000     0.609700000000     0          
C1527    C      0.838500000000     0.260600000000     0.594800000000     0          
H1528    H      0.926840000000     0.097740000000     0.742540000000     0          
H1529    H      0.935130000000     0.148400000000     0.710020000000     0          
H1530    H      0.926660000000     0.226070000000     0.531010000000     0          
Zr1531   Zr     0.591290000000     0.362170000000     0.212440000000     0          
Zr1532   Zr     0.620430000000     0.332790000000     0.161220000000     0          
S1533    S      0.565760000000     0.320490000000     0.085540000000     0          
O1534    O      0.585290000000     0.378800000000     0.124570000000     0          
O1535    O      0.593370000000     0.337680000000     0.128840000000     0          
O1536    O      0.542310000000     0.288070000000     0.049510000000     0          
O1537    O      0.524340000000     0.317400000000     0.025870000000     0          
O1538    O      0.640890000000     0.297850000000     0.172850000000     0          
O1539    O      0.660420000000     0.305490000000     0.209390000000     0          
O1540    O      0.637400000000     0.327080000000     0.249070000000     0          
O1541    O      0.597160000000     0.339250000000     0.247790000000     0          
O1542    O      0.554630000000     0.376840000000     0.196410000000     0          
O1543    O      0.564420000000     0.400440000000     0.162990000000     0          
O1544    O      0.598430000000     0.361680000000     0.174400000000     0          
O1545    O      0.616600000000     0.330660000000     0.202760000000     0          
O1546    O      0.573160000000     0.381580000000     0.242540000000     0          
O1547    O      0.564870000000     0.330920000000     0.210020000000     0          
O1548    O      0.573340000000     0.253250000000     0.031010000000     0          
C1549    C      0.583430000000     0.356250000000     0.118150000000     0          
C1550    C      0.567990000000     0.350560000000     0.096190000000     0          
C1551    C      0.554330000000     0.366600000000     0.082080000000     0          
H1552    H      0.554150000000     0.387320000000     0.086730000000     0          
C1553    C      0.541570000000     0.353840000000     0.062350000000     0          
H1554    H      0.528870000000     0.364640000000     0.049190000000     0          
C1555    C      0.546460000000     0.329300000000     0.061790000000     0          
C1556    C      0.536700000000     0.310030000000     0.044290000000     0          
C1557    C      0.656090000000     0.292840000000     0.189930000000     0          
C1558    C      0.670550000000     0.269460000000     0.186730000000     0          
C1559    C      0.690560000000     0.261200000000     0.199870000000     0          
H1560    H      0.697770000000     0.272410000000     0.216400000000     0          
C1561    C      0.615320000000     0.327050000000     0.256550000000     0          
C1562    C      0.608990000000     0.310550000000     0.278220000000     0          
C1563    C      0.586480000000     0.307040000000     0.288570000000     0          
H1564    H      0.569890000000     0.318590000000     0.282070000000     0          
C1565    C      0.549360000000     0.390470000000     0.178160000000     0          
C1566    C      0.522730000000     0.394710000000     0.172790000000     0          
C1567    C      0.513200000000     0.406900000000     0.152800000000     0          
H1568    H      0.526230000000     0.415630000000     0.138480000000     0          
O1569    O      0.591710000000     0.304690000000     0.164550000000     0          
C1570    C      0.591900000000     0.289700000000     0.179100000000     0          
O1571    O      0.588900000000     0.285000000000     0.199000000000     0          
O1572    O      0.638930000000     0.317720000000     0.128110000000     0          
S1573    S      0.678800000000     0.265660000000     0.098800000000     0          
C1574    C      0.635800000000     0.243700000000     0.103300000000     0          
C1575    C      0.653900000000     0.282700000000     0.109300000000     0          
C1576    C      0.659700000000     0.308900000000     0.122100000000     0          
C1577    C      0.632100000000     0.266200000000     0.109700000000     0          
C1578    C      0.661500000000     0.239400000000     0.094800000000     0          
H1579    H      0.573160000000     0.402260000000     0.242540000000     0          
H1580    H      0.564870000000     0.351600000000     0.210020000000     0          
H1581    H      0.573340000000     0.273930000000     0.031010000000     0          
Zr1582   Zr     0.091290000000     0.862170000000     0.712440000000     0          
Zr1583   Zr     0.120430000000     0.832790000000     0.661220000000     0          
S1584    S      0.065760000000     0.820490000000     0.585540000000     0          
O1585    O      0.085290000000     0.878800000000     0.624570000000     0          
O1586    O      0.093370000000     0.837680000000     0.628840000000     0          
O1587    O      0.042310000000     0.788070000000     0.549510000000     0          
O1588    O      0.024340000000     0.817400000000     0.525870000000     0          
O1589    O      0.140890000000     0.797850000000     0.672850000000     0          
O1590    O      0.160420000000     0.805490000000     0.709390000000     0          
O1591    O      0.137400000000     0.827080000000     0.749070000000     0          
O1592    O      0.097160000000     0.839250000000     0.747790000000     0          
O1593    O      0.054630000000     0.876840000000     0.696410000000     0          
O1594    O      0.064420000000     0.900440000000     0.662990000000     0          
O1595    O      0.098430000000     0.861680000000     0.674400000000     0          
O1596    O      0.116600000000     0.830660000000     0.702760000000     0          
O1597    O      0.073160000000     0.881580000000     0.742540000000     0          
O1598    O      0.064870000000     0.830920000000     0.710020000000     0          
O1599    O      0.073340000000     0.753250000000     0.531010000000     0          
C1600    C      0.083430000000     0.856250000000     0.618150000000     0          
C1601    C      0.067990000000     0.850560000000     0.596190000000     0          
C1602    C      0.054330000000     0.866600000000     0.582080000000     0          
H1603    H      0.054150000000     0.887320000000     0.586730000000     0          
C1604    C      0.041570000000     0.853840000000     0.562350000000     0          
H1605    H      0.028870000000     0.864640000000     0.549190000000     0          
C1606    C      0.046460000000     0.829300000000     0.561790000000     0          
C1607    C      0.036700000000     0.810030000000     0.544290000000     0          
C1608    C      0.156090000000     0.792840000000     0.689930000000     0          
C1609    C      0.170550000000     0.769460000000     0.686730000000     0          
C1610    C      0.190560000000     0.761200000000     0.699870000000     0          
H1611    H      0.197770000000     0.772410000000     0.716400000000     0          
C1612    C      0.115320000000     0.827050000000     0.756550000000     0          
C1613    C      0.108990000000     0.810550000000     0.778220000000     0          
C1614    C      0.086480000000     0.807040000000     0.788570000000     0          
H1615    H      0.069890000000     0.818590000000     0.782070000000     0          
C1616    C      0.049360000000     0.890470000000     0.678160000000     0          
C1617    C      0.022730000000     0.894710000000     0.672790000000     0          
C1618    C      0.013200000000     0.906900000000     0.652800000000     0          
H1619    H      0.026230000000     0.915630000000     0.638480000000     0          
O1620    O      0.091710000000     0.804690000000     0.664550000000     0          
C1621    C      0.091900000000     0.789700000000     0.679100000000     0          
O1622    O      0.088900000000     0.785000000000     0.699000000000     0          
O1623    O      0.138930000000     0.817720000000     0.628110000000     0          
S1624    S      0.178800000000     0.765660000000     0.598800000000     0          
C1625    C      0.135800000000     0.743700000000     0.603300000000     0          
C1626    C      0.153900000000     0.782700000000     0.609300000000     0          
C1627    C      0.159700000000     0.808900000000     0.622100000000     0          
C1628    C      0.132100000000     0.766200000000     0.609700000000     0          
C1629    C      0.161500000000     0.739400000000     0.594800000000     0          
H1630    H      0.073160000000     0.902260000000     0.742540000000     0          
H1631    H      0.064870000000     0.851600000000     0.710020000000     0          
H1632    H      0.073340000000     0.773930000000     0.531010000000     0          
Zr1633   Zr     0.362170000000     0.212440000000     0.591290000000     0          
Zr1634   Zr     0.332790000000     0.161220000000     0.620430000000     0          
S1635    S      0.320490000000     0.085540000000     0.565760000000     0          
O1636    O      0.378800000000     0.124570000000     0.585290000000     0          
O1637    O      0.337680000000     0.128840000000     0.593370000000     0          
O1638    O      0.288070000000     0.049510000000     0.542310000000     0          
O1639    O      0.317400000000     0.025870000000     0.524340000000     0          
O1640    O      0.297850000000     0.172850000000     0.640890000000     0          
O1641    O      0.305490000000     0.209390000000     0.660420000000     0          
O1642    O      0.327080000000     0.249070000000     0.637400000000     0          
O1643    O      0.339250000000     0.247790000000     0.597160000000     0          
O1644    O      0.376840000000     0.196410000000     0.554630000000     0          
O1645    O      0.400440000000     0.162990000000     0.564420000000     0          
O1646    O      0.361680000000     0.174400000000     0.598430000000     0          
O1647    O      0.330660000000     0.202760000000     0.616600000000     0          
O1648    O      0.381580000000     0.242540000000     0.573160000000     0          
O1649    O      0.330920000000     0.210020000000     0.564870000000     0          
O1650    O      0.253250000000     0.031010000000     0.573340000000     0          
C1651    C      0.356250000000     0.118150000000     0.583430000000     0          
C1652    C      0.350560000000     0.096190000000     0.567990000000     0          
C1653    C      0.366600000000     0.082080000000     0.554330000000     0          
H1654    H      0.387320000000     0.086730000000     0.554150000000     0          
C1655    C      0.353840000000     0.062350000000     0.541570000000     0          
H1656    H      0.364640000000     0.049190000000     0.528870000000     0          
C1657    C      0.329300000000     0.061790000000     0.546460000000     0          
C1658    C      0.310030000000     0.044290000000     0.536700000000     0          
C1659    C      0.292840000000     0.189930000000     0.656090000000     0          
C1660    C      0.269460000000     0.186730000000     0.670550000000     0          
C1661    C      0.261200000000     0.199870000000     0.690560000000     0          
H1662    H      0.272410000000     0.216400000000     0.697770000000     0          
C1663    C      0.327050000000     0.256550000000     0.615320000000     0          
C1664    C      0.310550000000     0.278220000000     0.608990000000     0          
C1665    C      0.307040000000     0.288570000000     0.586480000000     0          
H1666    H      0.318590000000     0.282070000000     0.569890000000     0          
C1667    C      0.390470000000     0.178160000000     0.549360000000     0          
C1668    C      0.394710000000     0.172790000000     0.522730000000     0          
C1669    C      0.406900000000     0.152800000000     0.513200000000     0          
H1670    H      0.415630000000     0.138480000000     0.526230000000     0          
O1671    O      0.304690000000     0.164550000000     0.591710000000     0          
C1672    C      0.289700000000     0.179100000000     0.591900000000     0          
O1673    O      0.285000000000     0.199000000000     0.588900000000     0          
O1674    O      0.317720000000     0.128110000000     0.638930000000     0          
S1675    S      0.265660000000     0.098800000000     0.678800000000     0          
C1676    C      0.243700000000     0.103300000000     0.635800000000     0          
C1677    C      0.282700000000     0.109300000000     0.653900000000     0          
C1678    C      0.308900000000     0.122100000000     0.659700000000     0          
C1679    C      0.266200000000     0.109700000000     0.632100000000     0          
C1680    C      0.239400000000     0.094800000000     0.661500000000     0          
H1681    H      0.402260000000     0.242540000000     0.573160000000     0          
H1682    H      0.351600000000     0.210020000000     0.564870000000     0          
H1683    H      0.273930000000     0.031010000000     0.573340000000     0          
Zr1684   Zr     0.862170000000     0.712440000000     0.091290000000     0          
Zr1685   Zr     0.832790000000     0.661220000000     0.120430000000     0          
S1686    S      0.820490000000     0.585540000000     0.065760000000     0          
O1687    O      0.878800000000     0.624570000000     0.085290000000     0          
O1688    O      0.837680000000     0.628840000000     0.093370000000     0          
O1689    O      0.788070000000     0.549510000000     0.042310000000     0          
O1690    O      0.817400000000     0.525870000000     0.024340000000     0          
O1691    O      0.797850000000     0.672850000000     0.140890000000     0          
O1692    O      0.805490000000     0.709390000000     0.160420000000     0          
O1693    O      0.827080000000     0.749070000000     0.137400000000     0          
O1694    O      0.839250000000     0.747790000000     0.097160000000     0          
O1695    O      0.876840000000     0.696410000000     0.054630000000     0          
O1696    O      0.900440000000     0.662990000000     0.064420000000     0          
O1697    O      0.861680000000     0.674400000000     0.098430000000     0          
O1698    O      0.830660000000     0.702760000000     0.116600000000     0          
O1699    O      0.881580000000     0.742540000000     0.073160000000     0          
O1700    O      0.830920000000     0.710020000000     0.064870000000     0          
O1701    O      0.753250000000     0.531010000000     0.073340000000     0          
C1702    C      0.856250000000     0.618150000000     0.083430000000     0          
C1703    C      0.850560000000     0.596190000000     0.067990000000     0          
C1704    C      0.866600000000     0.582080000000     0.054330000000     0          
H1705    H      0.887320000000     0.586730000000     0.054150000000     0          
C1706    C      0.853840000000     0.562350000000     0.041570000000     0          
H1707    H      0.864640000000     0.549190000000     0.028870000000     0          
C1708    C      0.829300000000     0.561790000000     0.046460000000     0          
C1709    C      0.810030000000     0.544290000000     0.036700000000     0          
C1710    C      0.792840000000     0.689930000000     0.156090000000     0          
C1711    C      0.769460000000     0.686730000000     0.170550000000     0          
C1712    C      0.761200000000     0.699870000000     0.190560000000     0          
H1713    H      0.772410000000     0.716400000000     0.197770000000     0          
C1714    C      0.827050000000     0.756550000000     0.115320000000     0          
C1715    C      0.810550000000     0.778220000000     0.108990000000     0          
C1716    C      0.807040000000     0.788570000000     0.086480000000     0          
H1717    H      0.818590000000     0.782070000000     0.069890000000     0          
C1718    C      0.890470000000     0.678160000000     0.049360000000     0          
C1719    C      0.894710000000     0.672790000000     0.022730000000     0          
C1720    C      0.906900000000     0.652800000000     0.013200000000     0          
H1721    H      0.915630000000     0.638480000000     0.026230000000     0          
O1722    O      0.804690000000     0.664550000000     0.091710000000     0          
C1723    C      0.789700000000     0.679100000000     0.091900000000     0          
O1724    O      0.785000000000     0.699000000000     0.088900000000     0          
O1725    O      0.817720000000     0.628110000000     0.138930000000     0          
S1726    S      0.765660000000     0.598800000000     0.178800000000     0          
C1727    C      0.743700000000     0.603300000000     0.135800000000     0          
C1728    C      0.782700000000     0.609300000000     0.153900000000     0          
C1729    C      0.808900000000     0.622100000000     0.159700000000     0          
C1730    C      0.766200000000     0.609700000000     0.132100000000     0          
C1731    C      0.739400000000     0.594800000000     0.161500000000     0          
H1732    H      0.902260000000     0.742540000000     0.073160000000     0          
H1733    H      0.851600000000     0.710020000000     0.064870000000     0          
H1734    H      0.773930000000     0.531010000000     0.073340000000     0          
Zr1735   Zr     0.637830000000     0.212440000000     0.408710000000     0          
Zr1736   Zr     0.667210000000     0.161220000000     0.379570000000     0          
S1737    S      0.679510000000     0.085540000000     0.434240000000     0          
O1738    O      0.621200000000     0.124570000000     0.414710000000     0          
O1739    O      0.662320000000     0.128840000000     0.406630000000     0          
O1740    O      0.711930000000     0.049510000000     0.457690000000     0          
O1741    O      0.682600000000     0.025870000000     0.475660000000     0          
O1742    O      0.702150000000     0.172850000000     0.359110000000     0          
O1743    O      0.694510000000     0.209390000000     0.339580000000     0          
O1744    O      0.672920000000     0.249070000000     0.362600000000     0          
O1745    O      0.660750000000     0.247790000000     0.402840000000     0          
O1746    O      0.623160000000     0.196410000000     0.445370000000     0          
O1747    O      0.599560000000     0.162990000000     0.435580000000     0          
O1748    O      0.638320000000     0.174400000000     0.401570000000     0          
O1749    O      0.669340000000     0.202760000000     0.383400000000     0          
O1750    O      0.618420000000     0.242540000000     0.426840000000     0          
O1751    O      0.669080000000     0.210020000000     0.435130000000     0          
O1752    O      0.746750000000     0.031010000000     0.426660000000     0          
C1753    C      0.643750000000     0.118150000000     0.416570000000     0          
C1754    C      0.649440000000     0.096190000000     0.432010000000     0          
C1755    C      0.633400000000     0.082080000000     0.445670000000     0          
H1756    H      0.612680000000     0.086730000000     0.445850000000     0          
C1757    C      0.646160000000     0.062350000000     0.458430000000     0          
H1758    H      0.635360000000     0.049190000000     0.471130000000     0          
C1759    C      0.670700000000     0.061790000000     0.453540000000     0          
C1760    C      0.689970000000     0.044290000000     0.463300000000     0          
C1761    C      0.707160000000     0.189930000000     0.343910000000     0          
C1762    C      0.730540000000     0.186730000000     0.329450000000     0          
C1763    C      0.738800000000     0.199870000000     0.309440000000     0          
H1764    H      0.727590000000     0.216400000000     0.302230000000     0          
C1765    C      0.672950000000     0.256550000000     0.384680000000     0          
C1766    C      0.689450000000     0.278220000000     0.391010000000     0          
C1767    C      0.692960000000     0.288570000000     0.413520000000     0          
H1768    H      0.681410000000     0.282070000000     0.430110000000     0          
C1769    C      0.609530000000     0.178160000000     0.450640000000     0          
C1770    C      0.605290000000     0.172790000000     0.477270000000     0          
C1771    C      0.593100000000     0.152800000000     0.486800000000     0          
H1772    H      0.584370000000     0.138480000000     0.473770000000     0          
O1773    O      0.695310000000     0.164550000000     0.408290000000     0          
C1774    C      0.710300000000     0.179100000000     0.408100000000     0          
O1775    O      0.715000000000     0.199000000000     0.411100000000     0          
O1776    O      0.682280000000     0.128110000000     0.361070000000     0          
S1777    S      0.734340000000     0.098800000000     0.321200000000     0          
C1778    C      0.756300000000     0.103300000000     0.364200000000     0          
C1779    C      0.717300000000     0.109300000000     0.346100000000     0          
C1780    C      0.691100000000     0.122100000000     0.340300000000     0          
C1781    C      0.733800000000     0.109700000000     0.367900000000     0          
C1782    C      0.760600000000     0.094800000000     0.338500000000     0          
H1783    H      0.597740000000     0.242540000000     0.426840000000     0          
H1784    H      0.648400000000     0.210020000000     0.435130000000     0          
H1785    H      0.726070000000     0.031010000000     0.426660000000     0          
Zr1786   Zr     0.137830000000     0.712440000000     0.908710000000     0          
Zr1787   Zr     0.167210000000     0.661220000000     0.879570000000     0          
S1788    S      0.179510000000     0.585540000000     0.934240000000     0          
O1789    O      0.121200000000     0.624570000000     0.914710000000     0          
O1790    O      0.162320000000     0.628840000000     0.906630000000     0          
O1791    O      0.211930000000     0.549510000000     0.957690000000     0          
O1792    O      0.182600000000     0.525870000000     0.975660000000     0          
O1793    O      0.202150000000     0.672850000000     0.859110000000     0          
O1794    O      0.194510000000     0.709390000000     0.839580000000     0          
O1795    O      0.172920000000     0.749070000000     0.862600000000     0          
O1796    O      0.160750000000     0.747790000000     0.902840000000     0          
O1797    O      0.123160000000     0.696410000000     0.945370000000     0          
O1798    O      0.099560000000     0.662990000000     0.935580000000     0          
O1799    O      0.138320000000     0.674400000000     0.901570000000     0          
O1800    O      0.169340000000     0.702760000000     0.883400000000     0          
O1801    O      0.118420000000     0.742540000000     0.926840000000     0          
O1802    O      0.169080000000     0.710020000000     0.935130000000     0          
O1803    O      0.246750000000     0.531010000000     0.926660000000     0          
C1804    C      0.143750000000     0.618150000000     0.916570000000     0          
C1805    C      0.149440000000     0.596190000000     0.932010000000     0          
C1806    C      0.133400000000     0.582080000000     0.945670000000     0          
H1807    H      0.112680000000     0.586730000000     0.945850000000     0          
C1808    C      0.146160000000     0.562350000000     0.958430000000     0          
H1809    H      0.135360000000     0.549190000000     0.971130000000     0          
C1810    C      0.170700000000     0.561790000000     0.953540000000     0          
C1811    C      0.189970000000     0.544290000000     0.963300000000     0          
C1812    C      0.207160000000     0.689930000000     0.843910000000     0          
C1813    C      0.230540000000     0.686730000000     0.829450000000     0          
C1814    C      0.238800000000     0.699870000000     0.809440000000     0          
H1815    H      0.227590000000     0.716400000000     0.802230000000     0          
C1816    C      0.172950000000     0.756550000000     0.884680000000     0          
C1817    C      0.189450000000     0.778220000000     0.891010000000     0          
C1818    C      0.192960000000     0.788570000000     0.913520000000     0          
H1819    H      0.181410000000     0.782070000000     0.930110000000     0          
C1820    C      0.109530000000     0.678160000000     0.950640000000     0          
C1821    C      0.105290000000     0.672790000000     0.977270000000     0          
C1822    C      0.093100000000     0.652800000000     0.986800000000     0          
H1823    H      0.084370000000     0.638480000000     0.973770000000     0          
O1824    O      0.195310000000     0.664550000000     0.908290000000     0          
C1825    C      0.210300000000     0.679100000000     0.908100000000     0          
O1826    O      0.215000000000     0.699000000000     0.911100000000     0          
O1827    O      0.182280000000     0.628110000000     0.861070000000     0          
S1828    S      0.234340000000     0.598800000000     0.821200000000     0          
C1829    C      0.256300000000     0.603300000000     0.864200000000     0          
C1830    C      0.217300000000     0.609300000000     0.846100000000     0          
C1831    C      0.191100000000     0.622100000000     0.840300000000     0          
C1832    C      0.233800000000     0.609700000000     0.867900000000     0          
C1833    C      0.260600000000     0.594800000000     0.838500000000     0          
H1834    H      0.097740000000     0.742540000000     0.926840000000     0          
H1835    H      0.148400000000     0.710020000000     0.935130000000     0          
H1836    H      0.226070000000     0.531010000000     0.926660000000     0          
Zr1837   Zr     0.637830000000     0.787560000000     0.591290000000     0          
Zr1838   Zr     0.667210000000     0.838780000000     0.620430000000     0          
S1839    S      0.679510000000     0.914460000000     0.565760000000     0          
O1840    O      0.621200000000     0.875430000000     0.585290000000     0          
O1841    O      0.662320000000     0.871160000000     0.593370000000     0          
O1842    O      0.711930000000     0.950490000000     0.542310000000     0          
O1843    O      0.682600000000     0.974130000000     0.524340000000     0          
O1844    O      0.702150000000     0.827150000000     0.640890000000     0          
O1845    O      0.694510000000     0.790610000000     0.660420000000     0          
O1846    O      0.672920000000     0.750930000000     0.637400000000     0          
O1847    O      0.660750000000     0.752210000000     0.597160000000     0          
O1848    O      0.623160000000     0.803590000000     0.554630000000     0          
O1849    O      0.599560000000     0.837010000000     0.564420000000     0          
O1850    O      0.638320000000     0.825600000000     0.598430000000     0          
O1851    O      0.669340000000     0.797240000000     0.616600000000     0          
O1852    O      0.618420000000     0.757460000000     0.573160000000     0          
O1853    O      0.669080000000     0.789980000000     0.564870000000     0          
O1854    O      0.746750000000     0.968990000000     0.573340000000     0          
C1855    C      0.643750000000     0.881850000000     0.583430000000     0          
C1856    C      0.649440000000     0.903810000000     0.567990000000     0          
C1857    C      0.633400000000     0.917920000000     0.554330000000     0          
H1858    H      0.612680000000     0.913270000000     0.554150000000     0          
C1859    C      0.646160000000     0.937650000000     0.541570000000     0          
H1860    H      0.635360000000     0.950810000000     0.528870000000     0          
C1861    C      0.670700000000     0.938210000000     0.546460000000     0          
C1862    C      0.689970000000     0.955710000000     0.536700000000     0          
C1863    C      0.707160000000     0.810070000000     0.656090000000     0          
C1864    C      0.730540000000     0.813270000000     0.670550000000     0          
C1865    C      0.738800000000     0.800130000000     0.690560000000     0          
H1866    H      0.727590000000     0.783600000000     0.697770000000     0          
C1867    C      0.672950000000     0.743450000000     0.615320000000     0          
C1868    C      0.689450000000     0.721780000000     0.608990000000     0          
C1869    C      0.692960000000     0.711430000000     0.586480000000     0          
H1870    H      0.681410000000     0.717930000000     0.569890000000     0          
C1871    C      0.609530000000     0.821840000000     0.549360000000     0          
C1872    C      0.605290000000     0.827210000000     0.522730000000     0          
C1873    C      0.593100000000     0.847200000000     0.513200000000     0          
H1874    H      0.584370000000     0.861520000000     0.526230000000     0          
O1875    O      0.695310000000     0.835450000000     0.591710000000     0          
C1876    C      0.710300000000     0.820900000000     0.591900000000     0          
O1877    O      0.715000000000     0.801000000000     0.588900000000     0          
O1878    O      0.682280000000     0.871890000000     0.638930000000     0          
S1879    S      0.734340000000     0.901200000000     0.678800000000     0          
C1880    C      0.756300000000     0.896700000000     0.635800000000     0          
C1881    C      0.717300000000     0.890700000000     0.653900000000     0          
C1882    C      0.691100000000     0.877900000000     0.659700000000     0          
C1883    C      0.733800000000     0.890300000000     0.632100000000     0          
C1884    C      0.760600000000     0.905200000000     0.661500000000     0          
H1885    H      0.597740000000     0.757460000000     0.573160000000     0          
H1886    H      0.648400000000     0.789980000000     0.564870000000     0          
H1887    H      0.726070000000     0.968990000000     0.573340000000     0          
Zr1888   Zr     0.137830000000     0.287560000000     0.091290000000     0          
Zr1889   Zr     0.167210000000     0.338780000000     0.120430000000     0          
S1890    S      0.179510000000     0.414460000000     0.065760000000     0          
O1891    O      0.121200000000     0.375430000000     0.085290000000     0          
O1892    O      0.162320000000     0.371160000000     0.093370000000     0          
O1893    O      0.211930000000     0.450490000000     0.042310000000     0          
O1894    O      0.182600000000     0.474130000000     0.024340000000     0          
O1895    O      0.202150000000     0.327150000000     0.140890000000     0          
O1896    O      0.194510000000     0.290610000000     0.160420000000     0          
O1897    O      0.172920000000     0.250930000000     0.137400000000     0          
O1898    O      0.160750000000     0.252210000000     0.097160000000     0          
O1899    O      0.123160000000     0.303590000000     0.054630000000     0          
O1900    O      0.099560000000     0.337010000000     0.064420000000     0          
O1901    O      0.138320000000     0.325600000000     0.098430000000     0          
O1902    O      0.169340000000     0.297240000000     0.116600000000     0          
O1903    O      0.118420000000     0.257460000000     0.073160000000     0          
O1904    O      0.169080000000     0.289980000000     0.064870000000     0          
O1905    O      0.246750000000     0.468990000000     0.073340000000     0          
C1906    C      0.143750000000     0.381850000000     0.083430000000     0          
C1907    C      0.149440000000     0.403810000000     0.067990000000     0          
C1908    C      0.133400000000     0.417920000000     0.054330000000     0          
H1909    H      0.112680000000     0.413270000000     0.054150000000     0          
C1910    C      0.146160000000     0.437650000000     0.041570000000     0          
H1911    H      0.135360000000     0.450810000000     0.028870000000     0          
C1912    C      0.170700000000     0.438210000000     0.046460000000     0          
C1913    C      0.189970000000     0.455710000000     0.036700000000     0          
C1914    C      0.207160000000     0.310070000000     0.156090000000     0          
C1915    C      0.230540000000     0.313270000000     0.170550000000     0          
C1916    C      0.238800000000     0.300130000000     0.190560000000     0          
H1917    H      0.227590000000     0.283600000000     0.197770000000     0          
C1918    C      0.172950000000     0.243450000000     0.115320000000     0          
C1919    C      0.189450000000     0.221780000000     0.108990000000     0          
C1920    C      0.192960000000     0.211430000000     0.086480000000     0          
H1921    H      0.181410000000     0.217930000000     0.069890000000     0          
C1922    C      0.109530000000     0.321840000000     0.049360000000     0          
C1923    C      0.105290000000     0.327210000000     0.022730000000     0          
C1924    C      0.093100000000     0.347200000000     0.013200000000     0          
H1925    H      0.084370000000     0.361520000000     0.026230000000     0          
O1926    O      0.195310000000     0.335450000000     0.091710000000     0          
C1927    C      0.210300000000     0.320900000000     0.091900000000     0          
O1928    O      0.215000000000     0.301000000000     0.088900000000     0          
O1929    O      0.182280000000     0.371890000000     0.138930000000     0          
S1930    S      0.234340000000     0.401200000000     0.178800000000     0          
C1931    C      0.256300000000     0.396700000000     0.135800000000     0          
C1932    C      0.217300000000     0.390700000000     0.153900000000     0          
C1933    C      0.191100000000     0.377900000000     0.159700000000     0          
C1934    C      0.233800000000     0.390300000000     0.132100000000     0          
C1935    C      0.260600000000     0.405200000000     0.161500000000     0          
H1936    H      0.097740000000     0.257460000000     0.073160000000     0          
H1937    H      0.148400000000     0.289980000000     0.064870000000     0          
H1938    H      0.226070000000     0.468990000000     0.073340000000     0          
Zr1939   Zr     0.362170000000     0.787560000000     0.408710000000     0          
Zr1940   Zr     0.332790000000     0.838780000000     0.379570000000     0          
S1941    S      0.320490000000     0.914460000000     0.434240000000     0          
O1942    O      0.378800000000     0.875430000000     0.414710000000     0          
O1943    O      0.337680000000     0.871160000000     0.406630000000     0          
O1944    O      0.288070000000     0.950490000000     0.457690000000     0          
O1945    O      0.317400000000     0.974130000000     0.475660000000     0          
O1946    O      0.297850000000     0.827150000000     0.359110000000     0          
O1947    O      0.305490000000     0.790610000000     0.339580000000     0          
O1948    O      0.327080000000     0.750930000000     0.362600000000     0          
O1949    O      0.339250000000     0.752210000000     0.402840000000     0          
O1950    O      0.376840000000     0.803590000000     0.445370000000     0          
O1951    O      0.400440000000     0.837010000000     0.435580000000     0          
O1952    O      0.361680000000     0.825600000000     0.401570000000     0          
O1953    O      0.330660000000     0.797240000000     0.383400000000     0          
O1954    O      0.381580000000     0.757460000000     0.426840000000     0          
O1955    O      0.330920000000     0.789980000000     0.435130000000     0          
O1956    O      0.253250000000     0.968990000000     0.426660000000     0          
C1957    C      0.356250000000     0.881850000000     0.416570000000     0          
C1958    C      0.350560000000     0.903810000000     0.432010000000     0          
C1959    C      0.366600000000     0.917920000000     0.445670000000     0          
H1960    H      0.387320000000     0.913270000000     0.445850000000     0          
C1961    C      0.353840000000     0.937650000000     0.458430000000     0          
H1962    H      0.364640000000     0.950810000000     0.471130000000     0          
C1963    C      0.329300000000     0.938210000000     0.453540000000     0          
C1964    C      0.310030000000     0.955710000000     0.463300000000     0          
C1965    C      0.292840000000     0.810070000000     0.343910000000     0          
C1966    C      0.269460000000     0.813270000000     0.329450000000     0          
C1967    C      0.261200000000     0.800130000000     0.309440000000     0          
H1968    H      0.272410000000     0.783600000000     0.302230000000     0          
C1969    C      0.327050000000     0.743450000000     0.384680000000     0          
C1970    C      0.310550000000     0.721780000000     0.391010000000     0          
C1971    C      0.307040000000     0.711430000000     0.413520000000     0          
H1972    H      0.318590000000     0.717930000000     0.430110000000     0          
C1973    C      0.390470000000     0.821840000000     0.450640000000     0          
C1974    C      0.394710000000     0.827210000000     0.477270000000     0          
C1975    C      0.406900000000     0.847200000000     0.486800000000     0          
H1976    H      0.415630000000     0.861520000000     0.473770000000     0          
O1977    O      0.304690000000     0.835450000000     0.408290000000     0          
C1978    C      0.289700000000     0.820900000000     0.408100000000     0          
O1979    O      0.285000000000     0.801000000000     0.411100000000     0          
O1980    O      0.317720000000     0.871890000000     0.361070000000     0          
S1981    S      0.265660000000     0.901200000000     0.321200000000     0          
C1982    C      0.243700000000     0.896700000000     0.364200000000     0          
C1983    C      0.282700000000     0.890700000000     0.346100000000     0          
C1984    C      0.308900000000     0.877900000000     0.340300000000     0          
C1985    C      0.266200000000     0.890300000000     0.367900000000     0          
C1986    C      0.239400000000     0.905200000000     0.338500000000     0          
H1987    H      0.402260000000     0.757460000000     0.426840000000     0          
H1988    H      0.351600000000     0.789980000000     0.435130000000     0          
H1989    H      0.273930000000     0.968990000000     0.426660000000     0          
Zr1990   Zr     0.862170000000     0.287560000000     0.908710000000     0          
Zr1991   Zr     0.832790000000     0.338780000000     0.879570000000     0          
S1992    S      0.820490000000     0.414460000000     0.934240000000     0          
O1993    O      0.878800000000     0.375430000000     0.914710000000     0          
O1994    O      0.837680000000     0.371160000000     0.906630000000     0          
O1995    O      0.788070000000     0.450490000000     0.957690000000     0          
O1996    O      0.817400000000     0.474130000000     0.975660000000     0          
O1997    O      0.797850000000     0.327150000000     0.859110000000     0          
O1998    O      0.805490000000     0.290610000000     0.839580000000     0          
O1999    O      0.827080000000     0.250930000000     0.862600000000     0          
O2000    O      0.839250000000     0.252210000000     0.902840000000     0          
O2001    O      0.876840000000     0.303590000000     0.945370000000     0          
O2002    O      0.900440000000     0.337010000000     0.935580000000     0          
O2003    O      0.861680000000     0.325600000000     0.901570000000     0          
O2004    O      0.830660000000     0.297240000000     0.883400000000     0          
O2005    O      0.881580000000     0.257460000000     0.926840000000     0          
O2006    O      0.830920000000     0.289980000000     0.935130000000     0          
O2007    O      0.753250000000     0.468990000000     0.926660000000     0          
C2008    C      0.856250000000     0.381850000000     0.916570000000     0          
C2009    C      0.850560000000     0.403810000000     0.932010000000     0          
C2010    C      0.866600000000     0.417920000000     0.945670000000     0          
H2011    H      0.887320000000     0.413270000000     0.945850000000     0          
C2012    C      0.853840000000     0.437650000000     0.958430000000     0          
H2013    H      0.864640000000     0.450810000000     0.971130000000     0          
C2014    C      0.829300000000     0.438210000000     0.953540000000     0          
C2015    C      0.810030000000     0.455710000000     0.963300000000     0          
C2016    C      0.792840000000     0.310070000000     0.843910000000     0          
C2017    C      0.769460000000     0.313270000000     0.829450000000     0          
C2018    C      0.761200000000     0.300130000000     0.809440000000     0          
H2019    H      0.772410000000     0.283600000000     0.802230000000     0          
C2020    C      0.827050000000     0.243450000000     0.884680000000     0          
C2021    C      0.810550000000     0.221780000000     0.891010000000     0          
C2022    C      0.807040000000     0.211430000000     0.913520000000     0          
H2023    H      0.818590000000     0.217930000000     0.930110000000     0          
C2024    C      0.890470000000     0.321840000000     0.950640000000     0          
C2025    C      0.894710000000     0.327210000000     0.977270000000     0          
C2026    C      0.906900000000     0.347200000000     0.986800000000     0          
H2027    H      0.915630000000     0.361520000000     0.973770000000     0          
O2028    O      0.804690000000     0.335450000000     0.908290000000     0          
C2029    C      0.789700000000     0.320900000000     0.908100000000     0          
O2030    O      0.785000000000     0.301000000000     0.911100000000     0          
O2031    O      0.817720000000     0.371890000000     0.861070000000     0          
S2032    S      0.765660000000     0.401200000000     0.821200000000     0          
C2033    C      0.743700000000     0.396700000000     0.864200000000     0          
C2034    C      0.782700000000     0.390700000000     0.846100000000     0          
C2035    C      0.808900000000     0.377900000000     0.840300000000     0          
C2036    C      0.766200000000     0.390300000000     0.867900000000     0          
C2037    C      0.739400000000     0.405200000000     0.838500000000     0          
H2038    H      0.902260000000     0.257460000000     0.926840000000     0          
H2039    H      0.851600000000     0.289980000000     0.935130000000     0          
H2040    H      0.773930000000     0.468990000000     0.926660000000     0          
Zr2041   Zr     0.212440000000     0.408710000000     0.637830000000     0          
Zr2042   Zr     0.161220000000     0.379570000000     0.667210000000     0          
S2043    S      0.085540000000     0.434240000000     0.679510000000     0          
O2044    O      0.124570000000     0.414710000000     0.621200000000     0          
O2045    O      0.128840000000     0.406630000000     0.662320000000     0          
O2046    O      0.049510000000     0.457690000000     0.711930000000     0          
O2047    O      0.025870000000     0.475660000000     0.682600000000     0          
O2048    O      0.172850000000     0.359110000000     0.702150000000     0          
O2049    O      0.209390000000     0.339580000000     0.694510000000     0          
O2050    O      0.249070000000     0.362600000000     0.672920000000     0          
O2051    O      0.247790000000     0.402840000000     0.660750000000     0          
O2052    O      0.196410000000     0.445370000000     0.623160000000     0          
O2053    O      0.162990000000     0.435580000000     0.599560000000     0          
O2054    O      0.174400000000     0.401570000000     0.638320000000     0          
O2055    O      0.202760000000     0.383400000000     0.669340000000     0          
O2056    O      0.242540000000     0.426840000000     0.618420000000     0          
O2057    O      0.210020000000     0.435130000000     0.669080000000     0          
O2058    O      0.031010000000     0.426660000000     0.746750000000     0          
C2059    C      0.118150000000     0.416570000000     0.643750000000     0          
C2060    C      0.096190000000     0.432010000000     0.649440000000     0          
C2061    C      0.082080000000     0.445670000000     0.633400000000     0          
H2062    H      0.086730000000     0.445850000000     0.612680000000     0          
C2063    C      0.062350000000     0.458430000000     0.646160000000     0          
H2064    H      0.049190000000     0.471130000000     0.635360000000     0          
C2065    C      0.061790000000     0.453540000000     0.670700000000     0          
C2066    C      0.044290000000     0.463300000000     0.689970000000     0          
C2067    C      0.189930000000     0.343910000000     0.707160000000     0          
C2068    C      0.186730000000     0.329450000000     0.730540000000     0          
C2069    C      0.199870000000     0.309440000000     0.738800000000     0          
H2070    H      0.216400000000     0.302230000000     0.727590000000     0          
C2071    C      0.256550000000     0.384680000000     0.672950000000     0          
C2072    C      0.278220000000     0.391010000000     0.689450000000     0          
C2073    C      0.288570000000     0.413520000000     0.692960000000     0          
H2074    H      0.282070000000     0.430110000000     0.681410000000     0          
C2075    C      0.178160000000     0.450640000000     0.609530000000     0          
C2076    C      0.172790000000     0.477270000000     0.605290000000     0          
C2077    C      0.152800000000     0.486800000000     0.593100000000     0          
H2078    H      0.138480000000     0.473770000000     0.584370000000     0          
O2079    O      0.164550000000     0.408290000000     0.695310000000     0          
C2080    C      0.179100000000     0.408100000000     0.710300000000     0          
O2081    O      0.199000000000     0.411100000000     0.715000000000     0          
O2082    O      0.128110000000     0.361070000000     0.682280000000     0          
S2083    S      0.098800000000     0.321200000000     0.734340000000     0          
C2084    C      0.103300000000     0.364200000000     0.756300000000     0          
C2085    C      0.109300000000     0.346100000000     0.717300000000     0          
C2086    C      0.122100000000     0.340300000000     0.691100000000     0          
C2087    C      0.109700000000     0.367900000000     0.733800000000     0          
C2088    C      0.094800000000     0.338500000000     0.760600000000     0          
H2089    H      0.242540000000     0.426840000000     0.597740000000     0          
H2090    H      0.210020000000     0.435130000000     0.648400000000     0          
H2091    H      0.031010000000     0.426660000000     0.726070000000     0          
Zr2092   Zr     0.712440000000     0.908710000000     0.137830000000     0          
Zr2093   Zr     0.661220000000     0.879570000000     0.167210000000     0          
S2094    S      0.585540000000     0.934240000000     0.179510000000     0          
O2095    O      0.624570000000     0.914710000000     0.121200000000     0          
O2096    O      0.628840000000     0.906630000000     0.162320000000     0          
O2097    O      0.549510000000     0.957690000000     0.211930000000     0          
O2098    O      0.525870000000     0.975660000000     0.182600000000     0          
O2099    O      0.672850000000     0.859110000000     0.202150000000     0          
O2100    O      0.709390000000     0.839580000000     0.194510000000     0          
O2101    O      0.749070000000     0.862600000000     0.172920000000     0          
O2102    O      0.747790000000     0.902840000000     0.160750000000     0          
O2103    O      0.696410000000     0.945370000000     0.123160000000     0          
O2104    O      0.662990000000     0.935580000000     0.099560000000     0          
O2105    O      0.674400000000     0.901570000000     0.138320000000     0          
O2106    O      0.702760000000     0.883400000000     0.169340000000     0          
O2107    O      0.742540000000     0.926840000000     0.118420000000     0          
O2108    O      0.710020000000     0.935130000000     0.169080000000     0          
O2109    O      0.531010000000     0.926660000000     0.246750000000     0          
C2110    C      0.618150000000     0.916570000000     0.143750000000     0          
C2111    C      0.596190000000     0.932010000000     0.149440000000     0          
C2112    C      0.582080000000     0.945670000000     0.133400000000     0          
H2113    H      0.586730000000     0.945850000000     0.112680000000     0          
C2114    C      0.562350000000     0.958430000000     0.146160000000     0          
H2115    H      0.549190000000     0.971130000000     0.135360000000     0          
C2116    C      0.561790000000     0.953540000000     0.170700000000     0          
C2117    C      0.544290000000     0.963300000000     0.189970000000     0          
C2118    C      0.689930000000     0.843910000000     0.207160000000     0          
C2119    C      0.686730000000     0.829450000000     0.230540000000     0          
C2120    C      0.699870000000     0.809440000000     0.238800000000     0          
H2121    H      0.716400000000     0.802230000000     0.227590000000     0          
C2122    C      0.756550000000     0.884680000000     0.172950000000     0          
C2123    C      0.778220000000     0.891010000000     0.189450000000     0          
C2124    C      0.788570000000     0.913520000000     0.192960000000     0          
H2125    H      0.782070000000     0.930110000000     0.181410000000     0          
C2126    C      0.678160000000     0.950640000000     0.109530000000     0          
C2127    C      0.672790000000     0.977270000000     0.105290000000     0          
C2128    C      0.652800000000     0.986800000000     0.093100000000     0          
H2129    H      0.638480000000     0.973770000000     0.084370000000     0          
O2130    O      0.664550000000     0.908290000000     0.195310000000     0          
C2131    C      0.679100000000     0.908100000000     0.210300000000     0          
O2132    O      0.699000000000     0.911100000000     0.215000000000     0          
O2133    O      0.628110000000     0.861070000000     0.182280000000     0          
S2134    S      0.598800000000     0.821200000000     0.234340000000     0          
C2135    C      0.603300000000     0.864200000000     0.256300000000     0          
C2136    C      0.609300000000     0.846100000000     0.217300000000     0          
C2137    C      0.622100000000     0.840300000000     0.191100000000     0          
C2138    C      0.609700000000     0.867900000000     0.233800000000     0          
C2139    C      0.594800000000     0.838500000000     0.260600000000     0          
H2140    H      0.742540000000     0.926840000000     0.097740000000     0          
H2141    H      0.710020000000     0.935130000000     0.148400000000     0          
H2142    H      0.531010000000     0.926660000000     0.226070000000     0          
Zr2143   Zr     0.212440000000     0.591290000000     0.362170000000     0          
Zr2144   Zr     0.161220000000     0.620430000000     0.332790000000     0          
S2145    S      0.085540000000     0.565760000000     0.320490000000     0          
O2146    O      0.124570000000     0.585290000000     0.378800000000     0          
O2147    O      0.128840000000     0.593370000000     0.337680000000     0          
O2148    O      0.049510000000     0.542310000000     0.288070000000     0          
O2149    O      0.025870000000     0.524340000000     0.317400000000     0          
O2150    O      0.172850000000     0.640890000000     0.297850000000     0          
O2151    O      0.209390000000     0.660420000000     0.305490000000     0          
O2152    O      0.249070000000     0.637400000000     0.327080000000     0          
O2153    O      0.247790000000     0.597160000000     0.339250000000     0          
O2154    O      0.196410000000     0.554630000000     0.376840000000     0          
O2155    O      0.162990000000     0.564420000000     0.400440000000     0          
O2156    O      0.174400000000     0.598430000000     0.361680000000     0          
O2157    O      0.202760000000     0.616600000000     0.330660000000     0          
O2158    O      0.242540000000     0.573160000000     0.381580000000     0          
O2159    O      0.210020000000     0.564870000000     0.330920000000     0          
O2160    O      0.031010000000     0.573340000000     0.253250000000     0          
C2161    C      0.118150000000     0.583430000000     0.356250000000     0          
C2162    C      0.096190000000     0.567990000000     0.350560000000     0          
C2163    C      0.082080000000     0.554330000000     0.366600000000     0          
H2164    H      0.086730000000     0.554150000000     0.387320000000     0          
C2165    C      0.062350000000     0.541570000000     0.353840000000     0          
H2166    H      0.049190000000     0.528870000000     0.364640000000     0          
C2167    C      0.061790000000     0.546460000000     0.329300000000     0          
C2168    C      0.044290000000     0.536700000000     0.310030000000     0          
C2169    C      0.189930000000     0.656090000000     0.292840000000     0          
C2170    C      0.186730000000     0.670550000000     0.269460000000     0          
C2171    C      0.199870000000     0.690560000000     0.261200000000     0          
H2172    H      0.216400000000     0.697770000000     0.272410000000     0          
C2173    C      0.256550000000     0.615320000000     0.327050000000     0          
C2174    C      0.278220000000     0.608990000000     0.310550000000     0          
C2175    C      0.288570000000     0.586480000000     0.307040000000     0          
H2176    H      0.282070000000     0.569890000000     0.318590000000     0          
C2177    C      0.178160000000     0.549360000000     0.390470000000     0          
C2178    C      0.172790000000     0.522730000000     0.394710000000     0          
C2179    C      0.152800000000     0.513200000000     0.406900000000     0          
H2180    H      0.138480000000     0.526230000000     0.415630000000     0          
O2181    O      0.164550000000     0.591710000000     0.304690000000     0          
C2182    C      0.179100000000     0.591900000000     0.289700000000     0          
O2183    O      0.199000000000     0.588900000000     0.285000000000     0          
O2184    O      0.128110000000     0.638930000000     0.317720000000     0          
S2185    S      0.098800000000     0.678800000000     0.265660000000     0          
C2186    C      0.103300000000     0.635800000000     0.243700000000     0          
C2187    C      0.109300000000     0.653900000000     0.282700000000     0          
C2188    C      0.122100000000     0.659700000000     0.308900000000     0          
C2189    C      0.109700000000     0.632100000000     0.266200000000     0          
C2190    C      0.094800000000     0.661500000000     0.239400000000     0          
H2191    H      0.242540000000     0.573160000000     0.402260000000     0          
H2192    H      0.210020000000     0.564870000000     0.351600000000     0          
H2193    H      0.031010000000     0.573340000000     0.273930000000     0          
Zr2194   Zr     0.712440000000     0.091290000000     0.862170000000     0          
Zr2195   Zr     0.661220000000     0.120430000000     0.832790000000     0          
S2196    S      0.585540000000     0.065760000000     0.820490000000     0          
O2197    O      0.624570000000     0.085290000000     0.878800000000     0          
O2198    O      0.628840000000     0.093370000000     0.837680000000     0          
O2199    O      0.549510000000     0.042310000000     0.788070000000     0          
O2200    O      0.525870000000     0.024340000000     0.817400000000     0          
O2201    O      0.672850000000     0.140890000000     0.797850000000     0          
O2202    O      0.709390000000     0.160420000000     0.805490000000     0          
O2203    O      0.749070000000     0.137400000000     0.827080000000     0          
O2204    O      0.747790000000     0.097160000000     0.839250000000     0          
O2205    O      0.696410000000     0.054630000000     0.876840000000     0          
O2206    O      0.662990000000     0.064420000000     0.900440000000     0          
O2207    O      0.674400000000     0.098430000000     0.861680000000     0          
O2208    O      0.702760000000     0.116600000000     0.830660000000     0          
O2209    O      0.742540000000     0.073160000000     0.881580000000     0          
O2210    O      0.710020000000     0.064870000000     0.830920000000     0          
O2211    O      0.531010000000     0.073340000000     0.753250000000     0          
C2212    C      0.618150000000     0.083430000000     0.856250000000     0          
C2213    C      0.596190000000     0.067990000000     0.850560000000     0          
C2214    C      0.582080000000     0.054330000000     0.866600000000     0          
H2215    H      0.586730000000     0.054150000000     0.887320000000     0          
C2216    C      0.562350000000     0.041570000000     0.853840000000     0          
H2217    H      0.549190000000     0.028870000000     0.864640000000     0          
C2218    C      0.561790000000     0.046460000000     0.829300000000     0          
C2219    C      0.544290000000     0.036700000000     0.810030000000     0          
C2220    C      0.689930000000     0.156090000000     0.792840000000     0          
C2221    C      0.686730000000     0.170550000000     0.769460000000     0          
C2222    C      0.699870000000     0.190560000000     0.761200000000     0          
H2223    H      0.716400000000     0.197770000000     0.772410000000     0          
C2224    C      0.756550000000     0.115320000000     0.827050000000     0          
C2225    C      0.778220000000     0.108990000000     0.810550000000     0          
C2226    C      0.788570000000     0.086480000000     0.807040000000     0          
H2227    H      0.782070000000     0.069890000000     0.818590000000     0          
C2228    C      0.678160000000     0.049360000000     0.890470000000     0          
C2229    C      0.672790000000     0.022730000000     0.894710000000     0          
C2230    C      0.652800000000     0.013200000000     0.906900000000     0          
H2231    H      0.638480000000     0.026230000000     0.915630000000     0          
O2232    O      0.664550000000     0.091710000000     0.804690000000     0          
C2233    C      0.679100000000     0.091900000000     0.789700000000     0          
O2234    O      0.699000000000     0.088900000000     0.785000000000     0          
O2235    O      0.628110000000     0.138930000000     0.817720000000     0          
S2236    S      0.598800000000     0.178800000000     0.765660000000     0          
C2237    C      0.603300000000     0.135800000000     0.743700000000     0          
C2238    C      0.609300000000     0.153900000000     0.782700000000     0          
C2239    C      0.622100000000     0.159700000000     0.808900000000     0          
C2240    C      0.609700000000     0.132100000000     0.766200000000     0          
C2241    C      0.594800000000     0.161500000000     0.739400000000     0          
H2242    H      0.742540000000     0.073160000000     0.902260000000     0          
H2243    H      0.710020000000     0.064870000000     0.851600000000     0          
H2244    H      0.531010000000     0.073340000000     0.773930000000     0          
Zr2245   Zr     0.787560000000     0.408710000000     0.362170000000     0          
Zr2246   Zr     0.838780000000     0.379570000000     0.332790000000     0          
S2247    S      0.914460000000     0.434240000000     0.320490000000     0          
O2248    O      0.875430000000     0.414710000000     0.378800000000     0          
O2249    O      0.871160000000     0.406630000000     0.337680000000     0          
O2250    O      0.950490000000     0.457690000000     0.288070000000     0          
O2251    O      0.974130000000     0.475660000000     0.317400000000     0          
O2252    O      0.827150000000     0.359110000000     0.297850000000     0          
O2253    O      0.790610000000     0.339580000000     0.305490000000     0          
O2254    O      0.750930000000     0.362600000000     0.327080000000     0          
O2255    O      0.752210000000     0.402840000000     0.339250000000     0          
O2256    O      0.803590000000     0.445370000000     0.376840000000     0          
O2257    O      0.837010000000     0.435580000000     0.400440000000     0          
O2258    O      0.825600000000     0.401570000000     0.361680000000     0          
O2259    O      0.797240000000     0.383400000000     0.330660000000     0          
O2260    O      0.757460000000     0.426840000000     0.381580000000     0          
O2261    O      0.789980000000     0.435130000000     0.330920000000     0          
O2262    O      0.968990000000     0.426660000000     0.253250000000     0          
C2263    C      0.881850000000     0.416570000000     0.356250000000     0          
C2264    C      0.903810000000     0.432010000000     0.350560000000     0          
C2265    C      0.917920000000     0.445670000000     0.366600000000     0          
H2266    H      0.913270000000     0.445850000000     0.387320000000     0          
C2267    C      0.937650000000     0.458430000000     0.353840000000     0          
H2268    H      0.950810000000     0.471130000000     0.364640000000     0          
C2269    C      0.938210000000     0.453540000000     0.329300000000     0          
C2270    C      0.955710000000     0.463300000000     0.310030000000     0          
C2271    C      0.810070000000     0.343910000000     0.292840000000     0          
C2272    C      0.813270000000     0.329450000000     0.269460000000     0          
C2273    C      0.800130000000     0.309440000000     0.261200000000     0          
H2274    H      0.783600000000     0.302230000000     0.272410000000     0          
C2275    C      0.743450000000     0.384680000000     0.327050000000     0          
C2276    C      0.721780000000     0.391010000000     0.310550000000     0          
C2277    C      0.711430000000     0.413520000000     0.307040000000     0          
H2278    H      0.717930000000     0.430110000000     0.318590000000     0          
C2279    C      0.821840000000     0.450640000000     0.390470000000     0          
C2280    C      0.827210000000     0.477270000000     0.394710000000     0          
C2281    C      0.847200000000     0.486800000000     0.406900000000     0          
H2282    H      0.861520000000     0.473770000000     0.415630000000     0          
O2283    O      0.835450000000     0.408290000000     0.304690000000     0          
C2284    C      0.820900000000     0.408100000000     0.289700000000     0          
O2285    O      0.801000000000     0.411100000000     0.285000000000     0          
O2286    O      0.871890000000     0.361070000000     0.317720000000     0          
S2287    S      0.901200000000     0.321200000000     0.265660000000     0          
C2288    C      0.896700000000     0.364200000000     0.243700000000     0          
C2289    C      0.890700000000     0.346100000000     0.282700000000     0          
C2290    C      0.877900000000     0.340300000000     0.308900000000     0          
C2291    C      0.890300000000     0.367900000000     0.266200000000     0          
C2292    C      0.905200000000     0.338500000000     0.239400000000     0          
H2293    H      0.757460000000     0.426840000000     0.402260000000     0          
H2294    H      0.789980000000     0.435130000000     0.351600000000     0          
H2295    H      0.968990000000     0.426660000000     0.273930000000     0          
Zr2296   Zr     0.287560000000     0.908710000000     0.862170000000     0          
Zr2297   Zr     0.338780000000     0.879570000000     0.832790000000     0          
S2298    S      0.414460000000     0.934240000000     0.820490000000     0          
O2299    O      0.375430000000     0.914710000000     0.878800000000     0          
O2300    O      0.371160000000     0.906630000000     0.837680000000     0          
O2301    O      0.450490000000     0.957690000000     0.788070000000     0          
O2302    O      0.474130000000     0.975660000000     0.817400000000     0          
O2303    O      0.327150000000     0.859110000000     0.797850000000     0          
O2304    O      0.290610000000     0.839580000000     0.805490000000     0          
O2305    O      0.250930000000     0.862600000000     0.827080000000     0          
O2306    O      0.252210000000     0.902840000000     0.839250000000     0          
O2307    O      0.303590000000     0.945370000000     0.876840000000     0          
O2308    O      0.337010000000     0.935580000000     0.900440000000     0          
O2309    O      0.325600000000     0.901570000000     0.861680000000     0          
O2310    O      0.297240000000     0.883400000000     0.830660000000     0          
O2311    O      0.257460000000     0.926840000000     0.881580000000     0          
O2312    O      0.289980000000     0.935130000000     0.830920000000     0          
O2313    O      0.468990000000     0.926660000000     0.753250000000     0          
C2314    C      0.381850000000     0.916570000000     0.856250000000     0          
C2315    C      0.403810000000     0.932010000000     0.850560000000     0          
C2316    C      0.417920000000     0.945670000000     0.866600000000     0          
H2317    H      0.413270000000     0.945850000000     0.887320000000     0          
C2318    C      0.437650000000     0.958430000000     0.853840000000     0          
H2319    H      0.450810000000     0.971130000000     0.864640000000     0          
C2320    C      0.438210000000     0.953540000000     0.829300000000     0          
C2321    C      0.455710000000     0.963300000000     0.810030000000     0          
C2322    C      0.310070000000     0.843910000000     0.792840000000     0          
C2323    C      0.313270000000     0.829450000000     0.769460000000     0          
C2324    C      0.300130000000     0.809440000000     0.761200000000     0          
H2325    H      0.283600000000     0.802230000000     0.772410000000     0          
C2326    C      0.243450000000     0.884680000000     0.827050000000     0          
C2327    C      0.221780000000     0.891010000000     0.810550000000     0          
C2328    C      0.211430000000     0.913520000000     0.807040000000     0          
H2329    H      0.217930000000     0.930110000000     0.818590000000     0          
C2330    C      0.321840000000     0.950640000000     0.890470000000     0          
C2331    C      0.327210000000     0.977270000000     0.894710000000     0          
C2332    C      0.347200000000     0.986800000000     0.906900000000     0          
H2333    H      0.361520000000     0.973770000000     0.915630000000     0          
O2334    O      0.335450000000     0.908290000000     0.804690000000     0          
C2335    C      0.320900000000     0.908100000000     0.789700000000     0          
O2336    O      0.301000000000     0.911100000000     0.785000000000     0          
O2337    O      0.371890000000     0.861070000000     0.817720000000     0          
S2338    S      0.401200000000     0.821200000000     0.765660000000     0          
C2339    C      0.396700000000     0.864200000000     0.743700000000     0          
C2340    C      0.390700000000     0.846100000000     0.782700000000     0          
C2341    C      0.377900000000     0.840300000000     0.808900000000     0          
C2342    C      0.390300000000     0.867900000000     0.766200000000     0          
C2343    C      0.405200000000     0.838500000000     0.739400000000     0          
H2344    H      0.257460000000     0.926840000000     0.902260000000     0          
H2345    H      0.289980000000     0.935130000000     0.851600000000     0          
H2346    H      0.468990000000     0.926660000000     0.773930000000     0          
Zr2347   Zr     0.787560000000     0.591290000000     0.637830000000     0          
Zr2348   Zr     0.838780000000     0.620430000000     0.667210000000     0          
S2349    S      0.914460000000     0.565760000000     0.679510000000     0          
O2350    O      0.875430000000     0.585290000000     0.621200000000     0          
O2351    O      0.871160000000     0.593370000000     0.662320000000     0          
O2352    O      0.950490000000     0.542310000000     0.711930000000     0          
O2353    O      0.974130000000     0.524340000000     0.682600000000     0          
O2354    O      0.827150000000     0.640890000000     0.702150000000     0          
O2355    O      0.790610000000     0.660420000000     0.694510000000     0          
O2356    O      0.750930000000     0.637400000000     0.672920000000     0          
O2357    O      0.752210000000     0.597160000000     0.660750000000     0          
O2358    O      0.803590000000     0.554630000000     0.623160000000     0          
O2359    O      0.837010000000     0.564420000000     0.599560000000     0          
O2360    O      0.825600000000     0.598430000000     0.638320000000     0          
O2361    O      0.797240000000     0.616600000000     0.669340000000     0          
O2362    O      0.757460000000     0.573160000000     0.618420000000     0          
O2363    O      0.789980000000     0.564870000000     0.669080000000     0          
O2364    O      0.968990000000     0.573340000000     0.746750000000     0          
C2365    C      0.881850000000     0.583430000000     0.643750000000     0          
C2366    C      0.903810000000     0.567990000000     0.649440000000     0          
C2367    C      0.917920000000     0.554330000000     0.633400000000     0          
H2368    H      0.913270000000     0.554150000000     0.612680000000     0          
C2369    C      0.937650000000     0.541570000000     0.646160000000     0          
H2370    H      0.950810000000     0.528870000000     0.635360000000     0          
C2371    C      0.938210000000     0.546460000000     0.670700000000     0          
C2372    C      0.955710000000     0.536700000000     0.689970000000     0          
C2373    C      0.810070000000     0.656090000000     0.707160000000     0          
C2374    C      0.813270000000     0.670550000000     0.730540000000     0          
C2375    C      0.800130000000     0.690560000000     0.738800000000     0          
H2376    H      0.783600000000     0.697770000000     0.727590000000     0          
C2377    C      0.743450000000     0.615320000000     0.672950000000     0          
C2378    C      0.721780000000     0.608990000000     0.689450000000     0          
C2379    C      0.711430000000     0.586480000000     0.692960000000     0          
H2380    H      0.717930000000     0.569890000000     0.681410000000     0          
C2381    C      0.821840000000     0.549360000000     0.609530000000     0          
C2382    C      0.827210000000     0.522730000000     0.605290000000     0          
C2383    C      0.847200000000     0.513200000000     0.593100000000     0          
H2384    H      0.861520000000     0.526230000000     0.584370000000     0          
O2385    O      0.835450000000     0.591710000000     0.695310000000     0          
C2386    C      0.820900000000     0.591900000000     0.710300000000     0          
O2387    O      0.801000000000     0.588900000000     0.715000000000     0          
O2388    O      0.871890000000     0.638930000000     0.682280000000     0          
S2389    S      0.901200000000     0.678800000000     0.734340000000     0          
C2390    C      0.896700000000     0.635800000000     0.756300000000     0          
C2391    C      0.890700000000     0.653900000000     0.717300000000     0          
C2392    C      0.877900000000     0.659700000000     0.691100000000     0          
C2393    C      0.890300000000     0.632100000000     0.733800000000     0          
C2394    C      0.905200000000     0.661500000000     0.760600000000     0          
H2395    H      0.757460000000     0.573160000000     0.597740000000     0          
H2396    H      0.789980000000     0.564870000000     0.648400000000     0          
H2397    H      0.968990000000     0.573340000000     0.726070000000     0          
Zr2398   Zr     0.287560000000     0.091290000000     0.137830000000     0          
Zr2399   Zr     0.338780000000     0.120430000000     0.167210000000     0          
S2400    S      0.414460000000     0.065760000000     0.179510000000     0          
O2401    O      0.375430000000     0.085290000000     0.121200000000     0          
O2402    O      0.371160000000     0.093370000000     0.162320000000     0          
O2403    O      0.450490000000     0.042310000000     0.211930000000     0          
O2404    O      0.474130000000     0.024340000000     0.182600000000     0          
O2405    O      0.327150000000     0.140890000000     0.202150000000     0          
O2406    O      0.290610000000     0.160420000000     0.194510000000     0          
O2407    O      0.250930000000     0.137400000000     0.172920000000     0          
O2408    O      0.252210000000     0.097160000000     0.160750000000     0          
O2409    O      0.303590000000     0.054630000000     0.123160000000     0          
O2410    O      0.337010000000     0.064420000000     0.099560000000     0          
O2411    O      0.325600000000     0.098430000000     0.138320000000     0          
O2412    O      0.297240000000     0.116600000000     0.169340000000     0          
O2413    O      0.257460000000     0.073160000000     0.118420000000     0          
O2414    O      0.289980000000     0.064870000000     0.169080000000     0          
O2415    O      0.468990000000     0.073340000000     0.246750000000     0          
C2416    C      0.381850000000     0.083430000000     0.143750000000     0          
C2417    C      0.403810000000     0.067990000000     0.149440000000     0          
C2418    C      0.417920000000     0.054330000000     0.133400000000     0          
H2419    H      0.413270000000     0.054150000000     0.112680000000     0          
C2420    C      0.437650000000     0.041570000000     0.146160000000     0          
H2421    H      0.450810000000     0.028870000000     0.135360000000     0          
C2422    C      0.438210000000     0.046460000000     0.170700000000     0          
C2423    C      0.455710000000     0.036700000000     0.189970000000     0          
C2424    C      0.310070000000     0.156090000000     0.207160000000     0          
C2425    C      0.313270000000     0.170550000000     0.230540000000     0          
C2426    C      0.300130000000     0.190560000000     0.238800000000     0          
H2427    H      0.283600000000     0.197770000000     0.227590000000     0          
C2428    C      0.243450000000     0.115320000000     0.172950000000     0          
C2429    C      0.221780000000     0.108990000000     0.189450000000     0          
C2430    C      0.211430000000     0.086480000000     0.192960000000     0          
H2431    H      0.217930000000     0.069890000000     0.181410000000     0          
C2432    C      0.321840000000     0.049360000000     0.109530000000     0          
C2433    C      0.327210000000     0.022730000000     0.105290000000     0          
C2434    C      0.347200000000     0.013200000000     0.093100000000     0          
H2435    H      0.361520000000     0.026230000000     0.084370000000     0          
O2436    O      0.335450000000     0.091710000000     0.195310000000     0          
C2437    C      0.320900000000     0.091900000000     0.210300000000     0          
O2438    O      0.301000000000     0.088900000000     0.215000000000     0          
O2439    O      0.371890000000     0.138930000000     0.182280000000     0          
S2440    S      0.401200000000     0.178800000000     0.234340000000     0          
C2441    C      0.396700000000     0.135800000000     0.256300000000     0          
C2442    C      0.390700000000     0.153900000000     0.217300000000     0          
C2443    C      0.377900000000     0.159700000000     0.191100000000     0          
C2444    C      0.390300000000     0.132100000000     0.233800000000     0          
C2445    C      0.405200000000     0.161500000000     0.260600000000     0          
H2446    H      0.257460000000     0.073160000000     0.097740000000     0          
H2447    H      0.289980000000     0.064870000000     0.148400000000     0          
H2448    H      0.468990000000     0.073340000000     0.226070000000     0          
Zr2449   Zr     0.637830000000     0.591290000000     0.787560000000     0          
Zr2450   Zr     0.667210000000     0.620430000000     0.838780000000     0          
S2451    S      0.679510000000     0.565760000000     0.914460000000     0          
O2452    O      0.621200000000     0.585290000000     0.875430000000     0          
O2453    O      0.662320000000     0.593370000000     0.871160000000     0          
O2454    O      0.711930000000     0.542310000000     0.950490000000     0          
O2455    O      0.682600000000     0.524340000000     0.974130000000     0          
O2456    O      0.702150000000     0.640890000000     0.827150000000     0          
O2457    O      0.694510000000     0.660420000000     0.790610000000     0          
O2458    O      0.672920000000     0.637400000000     0.750930000000     0          
O2459    O      0.660750000000     0.597160000000     0.752210000000     0          
O2460    O      0.623160000000     0.554630000000     0.803590000000     0          
O2461    O      0.599560000000     0.564420000000     0.837010000000     0          
O2462    O      0.638320000000     0.598430000000     0.825600000000     0          
O2463    O      0.669340000000     0.616600000000     0.797240000000     0          
O2464    O      0.618420000000     0.573160000000     0.757460000000     0          
O2465    O      0.669080000000     0.564870000000     0.789980000000     0          
O2466    O      0.746750000000     0.573340000000     0.968990000000     0          
C2467    C      0.643750000000     0.583430000000     0.881850000000     0          
C2468    C      0.649440000000     0.567990000000     0.903810000000     0          
C2469    C      0.633400000000     0.554330000000     0.917920000000     0          
H2470    H      0.612680000000     0.554150000000     0.913270000000     0          
C2471    C      0.646160000000     0.541570000000     0.937650000000     0          
H2472    H      0.635360000000     0.528870000000     0.950810000000     0          
C2473    C      0.670700000000     0.546460000000     0.938210000000     0          
C2474    C      0.689970000000     0.536700000000     0.955710000000     0          
C2475    C      0.707160000000     0.656090000000     0.810070000000     0          
C2476    C      0.730540000000     0.670550000000     0.813270000000     0          
C2477    C      0.738800000000     0.690560000000     0.800130000000     0          
H2478    H      0.727590000000     0.697770000000     0.783600000000     0          
C2479    C      0.672950000000     0.615320000000     0.743450000000     0          
C2480    C      0.689450000000     0.608990000000     0.721780000000     0          
C2481    C      0.692960000000     0.586480000000     0.711430000000     0          
H2482    H      0.681410000000     0.569890000000     0.717930000000     0          
C2483    C      0.609530000000     0.549360000000     0.821840000000     0          
C2484    C      0.605290000000     0.522730000000     0.827210000000     0          
C2485    C      0.593100000000     0.513200000000     0.847200000000     0          
H2486    H      0.584370000000     0.526230000000     0.861520000000     0          
O2487    O      0.695310000000     0.591710000000     0.835450000000     0          
C2488    C      0.710300000000     0.591900000000     0.820900000000     0          
O2489    O      0.715000000000     0.588900000000     0.801000000000     0          
O2490    O      0.682280000000     0.638930000000     0.871890000000     0          
S2491    S      0.734340000000     0.678800000000     0.901200000000     0          
C2492    C      0.756300000000     0.635800000000     0.896700000000     0          
C2493    C      0.717300000000     0.653900000000     0.890700000000     0          
C2494    C      0.691100000000     0.659700000000     0.877900000000     0          
C2495    C      0.733800000000     0.632100000000     0.890300000000     0          
C2496    C      0.760600000000     0.661500000000     0.905200000000     0          
H2497    H      0.597740000000     0.573160000000     0.757460000000     0          
H2498    H      0.648400000000     0.564870000000     0.789980000000     0          
H2499    H      0.726070000000     0.573340000000     0.968990000000     0          
Zr2500   Zr     0.137830000000     0.091290000000     0.287560000000     0          
Zr2501   Zr     0.167210000000     0.120430000000     0.338780000000     0          
S2502    S      0.179510000000     0.065760000000     0.414460000000     0          
O2503    O      0.121200000000     0.085290000000     0.375430000000     0          
O2504    O      0.162320000000     0.093370000000     0.371160000000     0          
O2505    O      0.211930000000     0.042310000000     0.450490000000     0          
O2506    O      0.182600000000     0.024340000000     0.474130000000     0          
O2507    O      0.202150000000     0.140890000000     0.327150000000     0          
O2508    O      0.194510000000     0.160420000000     0.290610000000     0          
O2509    O      0.172920000000     0.137400000000     0.250930000000     0          
O2510    O      0.160750000000     0.097160000000     0.252210000000     0          
O2511    O      0.123160000000     0.054630000000     0.303590000000     0          
O2512    O      0.099560000000     0.064420000000     0.337010000000     0          
O2513    O      0.138320000000     0.098430000000     0.325600000000     0          
O2514    O      0.169340000000     0.116600000000     0.297240000000     0          
O2515    O      0.118420000000     0.073160000000     0.257460000000     0          
O2516    O      0.169080000000     0.064870000000     0.289980000000     0          
O2517    O      0.246750000000     0.073340000000     0.468990000000     0          
C2518    C      0.143750000000     0.083430000000     0.381850000000     0          
C2519    C      0.149440000000     0.067990000000     0.403810000000     0          
C2520    C      0.133400000000     0.054330000000     0.417920000000     0          
H2521    H      0.112680000000     0.054150000000     0.413270000000     0          
C2522    C      0.146160000000     0.041570000000     0.437650000000     0          
H2523    H      0.135360000000     0.028870000000     0.450810000000     0          
C2524    C      0.170700000000     0.046460000000     0.438210000000     0          
C2525    C      0.189970000000     0.036700000000     0.455710000000     0          
C2526    C      0.207160000000     0.156090000000     0.310070000000     0          
C2527    C      0.230540000000     0.170550000000     0.313270000000     0          
C2528    C      0.238800000000     0.190560000000     0.300130000000     0          
H2529    H      0.227590000000     0.197770000000     0.283600000000     0          
C2530    C      0.172950000000     0.115320000000     0.243450000000     0          
C2531    C      0.189450000000     0.108990000000     0.221780000000     0          
C2532    C      0.192960000000     0.086480000000     0.211430000000     0          
H2533    H      0.181410000000     0.069890000000     0.217930000000     0          
C2534    C      0.109530000000     0.049360000000     0.321840000000     0          
C2535    C      0.105290000000     0.022730000000     0.327210000000     0          
C2536    C      0.093100000000     0.013200000000     0.347200000000     0          
H2537    H      0.084370000000     0.026230000000     0.361520000000     0          
O2538    O      0.195310000000     0.091710000000     0.335450000000     0          
C2539    C      0.210300000000     0.091900000000     0.320900000000     0          
O2540    O      0.215000000000     0.088900000000     0.301000000000     0          
O2541    O      0.182280000000     0.138930000000     0.371890000000     0          
S2542    S      0.234340000000     0.178800000000     0.401200000000     0          
C2543    C      0.256300000000     0.135800000000     0.396700000000     0          
C2544    C      0.217300000000     0.153900000000     0.390700000000     0          
C2545    C      0.191100000000     0.159700000000     0.377900000000     0          
C2546    C      0.233800000000     0.132100000000     0.390300000000     0          
C2547    C      0.260600000000     0.161500000000     0.405200000000     0          
H2548    H      0.097740000000     0.073160000000     0.257460000000     0          
H2549    H      0.148400000000     0.064870000000     0.289980000000     0          
H2550    H      0.226070000000     0.073340000000     0.468990000000     0          
Zr2551   Zr     0.362170000000     0.408710000000     0.787560000000     0          
Zr2552   Zr     0.332790000000     0.379570000000     0.838780000000     0          
S2553    S      0.320490000000     0.434240000000     0.914460000000     0          
O2554    O      0.378800000000     0.414710000000     0.875430000000     0          
O2555    O      0.337680000000     0.406630000000     0.871160000000     0          
O2556    O      0.288070000000     0.457690000000     0.950490000000     0          
O2557    O      0.317400000000     0.475660000000     0.974130000000     0          
O2558    O      0.297850000000     0.359110000000     0.827150000000     0          
O2559    O      0.305490000000     0.339580000000     0.790610000000     0          
O2560    O      0.327080000000     0.362600000000     0.750930000000     0          
O2561    O      0.339250000000     0.402840000000     0.752210000000     0          
O2562    O      0.376840000000     0.445370000000     0.803590000000     0          
O2563    O      0.400440000000     0.435580000000     0.837010000000     0          
O2564    O      0.361680000000     0.401570000000     0.825600000000     0          
O2565    O      0.330660000000     0.383400000000     0.797240000000     0          
O2566    O      0.381580000000     0.426840000000     0.757460000000     0          
O2567    O      0.330920000000     0.435130000000     0.789980000000     0          
O2568    O      0.253250000000     0.426660000000     0.968990000000     0          
C2569    C      0.356250000000     0.416570000000     0.881850000000     0          
C2570    C      0.350560000000     0.432010000000     0.903810000000     0          
C2571    C      0.366600000000     0.445670000000     0.917920000000     0          
H2572    H      0.387320000000     0.445850000000     0.913270000000     0          
C2573    C      0.353840000000     0.458430000000     0.937650000000     0          
H2574    H      0.364640000000     0.471130000000     0.950810000000     0          
C2575    C      0.329300000000     0.453540000000     0.938210000000     0          
C2576    C      0.310030000000     0.463300000000     0.955710000000     0          
C2577    C      0.292840000000     0.343910000000     0.810070000000     0          
C2578    C      0.269460000000     0.329450000000     0.813270000000     0          
C2579    C      0.261200000000     0.309440000000     0.800130000000     0          
H2580    H      0.272410000000     0.302230000000     0.783600000000     0          
C2581    C      0.327050000000     0.384680000000     0.743450000000     0          
C2582    C      0.310550000000     0.391010000000     0.721780000000     0          
C2583    C      0.307040000000     0.413520000000     0.711430000000     0          
H2584    H      0.318590000000     0.430110000000     0.717930000000     0          
C2585    C      0.390470000000     0.450640000000     0.821840000000     0          
C2586    C      0.394710000000     0.477270000000     0.827210000000     0          
C2587    C      0.406900000000     0.486800000000     0.847200000000     0          
H2588    H      0.415630000000     0.473770000000     0.861520000000     0          
O2589    O      0.304690000000     0.408290000000     0.835450000000     0          
C2590    C      0.289700000000     0.408100000000     0.820900000000     0          
O2591    O      0.285000000000     0.411100000000     0.801000000000     0          
O2592    O      0.317720000000     0.361070000000     0.871890000000     0          
S2593    S      0.265660000000     0.321200000000     0.901200000000     0          
C2594    C      0.243700000000     0.364200000000     0.896700000000     0          
C2595    C      0.282700000000     0.346100000000     0.890700000000     0          
C2596    C      0.308900000000     0.340300000000     0.877900000000     0          
C2597    C      0.266200000000     0.367900000000     0.890300000000     0          
C2598    C      0.239400000000     0.338500000000     0.905200000000     0          
H2599    H      0.402260000000     0.426840000000     0.757460000000     0          
H2600    H      0.351600000000     0.435130000000     0.789980000000     0          
H2601    H      0.273930000000     0.426660000000     0.968990000000     0          
Zr2602   Zr     0.862170000000     0.908710000000     0.287560000000     0          
Zr2603   Zr     0.832790000000     0.879570000000     0.338780000000     0          
S2604    S      0.820490000000     0.934240000000     0.414460000000     0          
O2605    O      0.878800000000     0.914710000000     0.375430000000     0          
O2606    O      0.837680000000     0.906630000000     0.371160000000     0          
O2607    O      0.788070000000     0.957690000000     0.450490000000     0          
O2608    O      0.817400000000     0.975660000000     0.474130000000     0          
O2609    O      0.797850000000     0.859110000000     0.327150000000     0          
O2610    O      0.805490000000     0.839580000000     0.290610000000     0          
O2611    O      0.827080000000     0.862600000000     0.250930000000     0          
O2612    O      0.839250000000     0.902840000000     0.252210000000     0          
O2613    O      0.876840000000     0.945370000000     0.303590000000     0          
O2614    O      0.900440000000     0.935580000000     0.337010000000     0          
O2615    O      0.861680000000     0.901570000000     0.325600000000     0          
O2616    O      0.830660000000     0.883400000000     0.297240000000     0          
O2617    O      0.881580000000     0.926840000000     0.257460000000     0          
O2618    O      0.830920000000     0.935130000000     0.289980000000     0          
O2619    O      0.753250000000     0.926660000000     0.468990000000     0          
C2620    C      0.856250000000     0.916570000000     0.381850000000     0          
C2621    C      0.850560000000     0.932010000000     0.403810000000     0          
C2622    C      0.866600000000     0.945670000000     0.417920000000     0          
H2623    H      0.887320000000     0.945850000000     0.413270000000     0          
C2624    C      0.853840000000     0.958430000000     0.437650000000     0          
H2625    H      0.864640000000     0.971130000000     0.450810000000     0          
C2626    C      0.829300000000     0.953540000000     0.438210000000     0          
C2627    C      0.810030000000     0.963300000000     0.455710000000     0          
C2628    C      0.792840000000     0.843910000000     0.310070000000     0          
C2629    C      0.769460000000     0.829450000000     0.313270000000     0          
C2630    C      0.761200000000     0.809440000000     0.300130000000     0          
H2631    H      0.772410000000     0.802230000000     0.283600000000     0          
C2632    C      0.827050000000     0.884680000000     0.243450000000     0          
C2633    C      0.810550000000     0.891010000000     0.221780000000     0          
C2634    C      0.807040000000     0.913520000000     0.211430000000     0          
H2635    H      0.818590000000     0.930110000000     0.217930000000     0          
C2636    C      0.890470000000     0.950640000000     0.321840000000     0          
C2637    C      0.894710000000     0.977270000000     0.327210000000     0          
C2638    C      0.906900000000     0.986800000000     0.347200000000     0          
H2639    H      0.915630000000     0.973770000000     0.361520000000     0          
O2640    O      0.804690000000     0.908290000000     0.335450000000     0          
C2641    C      0.789700000000     0.908100000000     0.320900000000     0          
O2642    O      0.785000000000     0.911100000000     0.301000000000     0          
O2643    O      0.817720000000     0.861070000000     0.371890000000     0          
S2644    S      0.765660000000     0.821200000000     0.401200000000     0          
C2645    C      0.743700000000     0.864200000000     0.396700000000     0          
C2646    C      0.782700000000     0.846100000000     0.390700000000     0          
C2647    C      0.808900000000     0.840300000000     0.377900000000     0          
C2648    C      0.766200000000     0.867900000000     0.390300000000     0          
C2649    C      0.739400000000     0.838500000000     0.405200000000     0          
H2650    H      0.902260000000     0.926840000000     0.257460000000     0          
H2651    H      0.851600000000     0.935130000000     0.289980000000     0          
H2652    H      0.773930000000     0.926660000000     0.468990000000     0          
Zr2653   Zr     0.362170000000     0.591290000000     0.212440000000     0          
Zr2654   Zr     0.332790000000     0.620430000000     0.161220000000     0          
S2655    S      0.320490000000     0.565760000000     0.085540000000     0          
O2656    O      0.378800000000     0.585290000000     0.124570000000     0          
O2657    O      0.337680000000     0.593370000000     0.128840000000     0          
O2658    O      0.288070000000     0.542310000000     0.049510000000     0          
O2659    O      0.317400000000     0.524340000000     0.025870000000     0          
O2660    O      0.297850000000     0.640890000000     0.172850000000     0          
O2661    O      0.305490000000     0.660420000000     0.209390000000     0          
O2662    O      0.327080000000     0.637400000000     0.249070000000     0          
O2663    O      0.339250000000     0.597160000000     0.247790000000     0          
O2664    O      0.376840000000     0.554630000000     0.196410000000     0          
O2665    O      0.400440000000     0.564420000000     0.162990000000     0          
O2666    O      0.361680000000     0.598430000000     0.174400000000     0          
O2667    O      0.330660000000     0.616600000000     0.202760000000     0          
O2668    O      0.381580000000     0.573160000000     0.242540000000     0          
O2669    O      0.330920000000     0.564870000000     0.210020000000     0          
O2670    O      0.253250000000     0.573340000000     0.031010000000     0          
C2671    C      0.356250000000     0.583430000000     0.118150000000     0          
C2672    C      0.350560000000     0.567990000000     0.096190000000     0          
C2673    C      0.366600000000     0.554330000000     0.082080000000     0          
H2674    H      0.387320000000     0.554150000000     0.086730000000     0          
C2675    C      0.353840000000     0.541570000000     0.062350000000     0          
H2676    H      0.364640000000     0.528870000000     0.049190000000     0          
C2677    C      0.329300000000     0.546460000000     0.061790000000     0          
C2678    C      0.310030000000     0.536700000000     0.044290000000     0          
C2679    C      0.292840000000     0.656090000000     0.189930000000     0          
C2680    C      0.269460000000     0.670550000000     0.186730000000     0          
C2681    C      0.261200000000     0.690560000000     0.199870000000     0          
H2682    H      0.272410000000     0.697770000000     0.216400000000     0          
C2683    C      0.327050000000     0.615320000000     0.256550000000     0          
C2684    C      0.310550000000     0.608990000000     0.278220000000     0          
C2685    C      0.307040000000     0.586480000000     0.288570000000     0          
H2686    H      0.318590000000     0.569890000000     0.282070000000     0          
C2687    C      0.390470000000     0.549360000000     0.178160000000     0          
C2688    C      0.394710000000     0.522730000000     0.172790000000     0          
C2689    C      0.406900000000     0.513200000000     0.152800000000     0          
H2690    H      0.415630000000     0.526230000000     0.138480000000     0          
O2691    O      0.304690000000     0.591710000000     0.164550000000     0          
C2692    C      0.289700000000     0.591900000000     0.179100000000     0          
O2693    O      0.285000000000     0.588900000000     0.199000000000     0          
O2694    O      0.317720000000     0.638930000000     0.128110000000     0          
S2695    S      0.265660000000     0.678800000000     0.098800000000     0          
C2696    C      0.243700000000     0.635800000000     0.103300000000     0          
C2697    C      0.282700000000     0.653900000000     0.109300000000     0          
C2698    C      0.308900000000     0.659700000000     0.122100000000     0          
C2699    C      0.266200000000     0.632100000000     0.109700000000     0          
C2700    C      0.239400000000     0.661500000000     0.094800000000     0          
H2701    H      0.402260000000     0.573160000000     0.242540000000     0          
H2702    H      0.351600000000     0.564870000000     0.210020000000     0          
H2703    H      0.273930000000     0.573340000000     0.031010000000     0          
Zr2704   Zr     0.862170000000     0.091290000000     0.712440000000     0          
Zr2705   Zr     0.832790000000     0.120430000000     0.661220000000     0          
S2706    S      0.820490000000     0.065760000000     0.585540000000     0          
O2707    O      0.878800000000     0.085290000000     0.624570000000     0          
O2708    O      0.837680000000     0.093370000000     0.628840000000     0          
O2709    O      0.788070000000     0.042310000000     0.549510000000     0          
O2710    O      0.817400000000     0.024340000000     0.525870000000     0          
O2711    O      0.797850000000     0.140890000000     0.672850000000     0          
O2712    O      0.805490000000     0.160420000000     0.709390000000     0          
O2713    O      0.827080000000     0.137400000000     0.749070000000     0          
O2714    O      0.839250000000     0.097160000000     0.747790000000     0          
O2715    O      0.876840000000     0.054630000000     0.696410000000     0          
O2716    O      0.900440000000     0.064420000000     0.662990000000     0          
O2717    O      0.861680000000     0.098430000000     0.674400000000     0          
O2718    O      0.830660000000     0.116600000000     0.702760000000     0          
O2719    O      0.881580000000     0.073160000000     0.742540000000     0          
O2720    O      0.830920000000     0.064870000000     0.710020000000     0          
O2721    O      0.753250000000     0.073340000000     0.531010000000     0          
C2722    C      0.856250000000     0.083430000000     0.618150000000     0          
C2723    C      0.850560000000     0.067990000000     0.596190000000     0          
C2724    C      0.866600000000     0.054330000000     0.582080000000     0          
H2725    H      0.887320000000     0.054150000000     0.586730000000     0          
C2726    C      0.853840000000     0.041570000000     0.562350000000     0          
H2727    H      0.864640000000     0.028870000000     0.549190000000     0          
C2728    C      0.829300000000     0.046460000000     0.561790000000     0          
C2729    C      0.810030000000     0.036700000000     0.544290000000     0          
C2730    C      0.792840000000     0.156090000000     0.689930000000     0          
C2731    C      0.769460000000     0.170550000000     0.686730000000     0          
C2732    C      0.761200000000     0.190560000000     0.699870000000     0          
H2733    H      0.772410000000     0.197770000000     0.716400000000     0          
C2734    C      0.827050000000     0.115320000000     0.756550000000     0          
C2735    C      0.810550000000     0.108990000000     0.778220000000     0          
C2736    C      0.807040000000     0.086480000000     0.788570000000     0          
H2737    H      0.818590000000     0.069890000000     0.782070000000     0          
C2738    C      0.890470000000     0.049360000000     0.678160000000     0          
C2739    C      0.894710000000     0.022730000000     0.672790000000     0          
C2740    C      0.906900000000     0.013200000000     0.652800000000     0          
H2741    H      0.915630000000     0.026230000000     0.638480000000     0          
O2742    O      0.804690000000     0.091710000000     0.664550000000     0          
C2743    C      0.789700000000     0.091900000000     0.679100000000     0          
O2744    O      0.785000000000     0.088900000000     0.699000000000     0          
O2745    O      0.817720000000     0.138930000000     0.628110000000     0          
S2746    S      0.765660000000     0.178800000000     0.598800000000     0          
C2747    C      0.743700000000     0.135800000000     0.603300000000     0          
C2748    C      0.782700000000     0.153900000000     0.609300000000     0          
C2749    C      0.808900000000     0.159700000000     0.622100000000     0          
C2750    C      0.766200000000     0.132100000000     0.609700000000     0          
C2751    C      0.739400000000     0.161500000000     0.594800000000     0          
H2752    H      0.902260000000     0.073160000000     0.742540000000     0          
H2753    H      0.851600000000     0.064870000000     0.710020000000     0          
H2754    H      0.773930000000     0.073340000000     0.531010000000     0          
Zr2755   Zr     0.637830000000     0.408710000000     0.212440000000     0          
Zr2756   Zr     0.667210000000     0.379570000000     0.161220000000     0          
S2757    S      0.679510000000     0.434240000000     0.085540000000     0          
O2758    O      0.621200000000     0.414710000000     0.124570000000     0          
O2759    O      0.662320000000     0.406630000000     0.128840000000     0          
O2760    O      0.711930000000     0.457690000000     0.049510000000     0          
O2761    O      0.682600000000     0.475660000000     0.025870000000     0          
O2762    O      0.702150000000     0.359110000000     0.172850000000     0          
O2763    O      0.694510000000     0.339580000000     0.209390000000     0          
O2764    O      0.672920000000     0.362600000000     0.249070000000     0          
O2765    O      0.660750000000     0.402840000000     0.247790000000     0          
O2766    O      0.623160000000     0.445370000000     0.196410000000     0          
O2767    O      0.599560000000     0.435580000000     0.162990000000     0          
O2768    O      0.638320000000     0.401570000000     0.174400000000     0          
O2769    O      0.669340000000     0.383400000000     0.202760000000     0          
O2770    O      0.618420000000     0.426840000000     0.242540000000     0          
O2771    O      0.669080000000     0.435130000000     0.210020000000     0          
O2772    O      0.746750000000     0.426660000000     0.031010000000     0          
C2773    C      0.643750000000     0.416570000000     0.118150000000     0          
C2774    C      0.649440000000     0.432010000000     0.096190000000     0          
C2775    C      0.633400000000     0.445670000000     0.082080000000     0          
H2776    H      0.612680000000     0.445850000000     0.086730000000     0          
C2777    C      0.646160000000     0.458430000000     0.062350000000     0          
H2778    H      0.635360000000     0.471130000000     0.049190000000     0          
C2779    C      0.670700000000     0.453540000000     0.061790000000     0          
C2780    C      0.689970000000     0.463300000000     0.044290000000     0          
C2781    C      0.707160000000     0.343910000000     0.189930000000     0          
C2782    C      0.730540000000     0.329450000000     0.186730000000     0          
C2783    C      0.738800000000     0.309440000000     0.199870000000     0          
H2784    H      0.727590000000     0.302230000000     0.216400000000     0          
C2785    C      0.672950000000     0.384680000000     0.256550000000     0          
C2786    C      0.689450000000     0.391010000000     0.278220000000     0          
C2787    C      0.692960000000     0.413520000000     0.288570000000     0          
H2788    H      0.681410000000     0.430110000000     0.282070000000     0          
C2789    C      0.609530000000     0.450640000000     0.178160000000     0          
C2790    C      0.605290000000     0.477270000000     0.172790000000     0          
C2791    C      0.593100000000     0.486800000000     0.152800000000     0          
H2792    H      0.584370000000     0.473770000000     0.138480000000     0          
O2793    O      0.695310000000     0.408290000000     0.164550000000     0          
C2794    C      0.710300000000     0.408100000000     0.179100000000     0          
O2795    O      0.715000000000     0.411100000000     0.199000000000     0          
O2796    O      0.682280000000     0.361070000000     0.128110000000     0          
S2797    S      0.734340000000     0.321200000000     0.098800000000     0          
C2798    C      0.756300000000     0.364200000000     0.103300000000     0          
C2799    C      0.717300000000     0.346100000000     0.109300000000     0          
C2800    C      0.691100000000     0.340300000000     0.122100000000     0          
C2801    C      0.733800000000     0.367900000000     0.109700000000     0          
C2802    C      0.760600000000     0.338500000000     0.094800000000     0          
H2803    H      0.597740000000     0.426840000000     0.242540000000     0          
H2804    H      0.648400000000     0.435130000000     0.210020000000     0          
H2805    H      0.726070000000     0.426660000000     0.031010000000     0          
Zr2806   Zr     0.137830000000     0.908710000000     0.712440000000     0          
Zr2807   Zr     0.167210000000     0.879570000000     0.661220000000     0          
S2808    S      0.179510000000     0.934240000000     0.585540000000     0          
O2809    O      0.121200000000     0.914710000000     0.624570000000     0          
O2810    O      0.162320000000     0.906630000000     0.628840000000     0          
O2811    O      0.211930000000     0.957690000000     0.549510000000     0          
O2812    O      0.182600000000     0.975660000000     0.525870000000     0          
O2813    O      0.202150000000     0.859110000000     0.672850000000     0          
O2814    O      0.194510000000     0.839580000000     0.709390000000     0          
O2815    O      0.172920000000     0.862600000000     0.749070000000     0          
O2816    O      0.160750000000     0.902840000000     0.747790000000     0          
O2817    O      0.123160000000     0.945370000000     0.696410000000     0          
O2818    O      0.099560000000     0.935580000000     0.662990000000     0          
O2819    O      0.138320000000     0.901570000000     0.674400000000     0          
O2820    O      0.169340000000     0.883400000000     0.702760000000     0          
O2821    O      0.118420000000     0.926840000000     0.742540000000     0          
O2822    O      0.169080000000     0.935130000000     0.710020000000     0          
O2823    O      0.246750000000     0.926660000000     0.531010000000     0          
C2824    C      0.143750000000     0.916570000000     0.618150000000     0          
C2825    C      0.149440000000     0.932010000000     0.596190000000     0          
C2826    C      0.133400000000     0.945670000000     0.582080000000     0          
H2827    H      0.112680000000     0.945850000000     0.586730000000     0          
C2828    C      0.146160000000     0.958430000000     0.562350000000     0          
H2829    H      0.135360000000     0.971130000000     0.549190000000     0          
C2830    C      0.170700000000     0.953540000000     0.561790000000     0          
C2831    C      0.189970000000     0.963300000000     0.544290000000     0          
C2832    C      0.207160000000     0.843910000000     0.689930000000     0          
C2833    C      0.230540000000     0.829450000000     0.686730000000     0          
C2834    C      0.238800000000     0.809440000000     0.699870000000     0          
H2835    H      0.227590000000     0.802230000000     0.716400000000     0          
C2836    C      0.172950000000     0.884680000000     0.756550000000     0          
C2837    C      0.189450000000     0.891010000000     0.778220000000     0          
C2838    C      0.192960000000     0.913520000000     0.788570000000     0          
H2839    H      0.181410000000     0.930110000000     0.782070000000     0          
C2840    C      0.109530000000     0.950640000000     0.678160000000     0          
C2841    C      0.105290000000     0.977270000000     0.672790000000     0          
C2842    C      0.093100000000     0.986800000000     0.652800000000     0          
H2843    H      0.084370000000     0.973770000000     0.638480000000     0          
O2844    O      0.195310000000     0.908290000000     0.664550000000     0          
C2845    C      0.210300000000     0.908100000000     0.679100000000     0          
O2846    O      0.215000000000     0.911100000000     0.699000000000     0          
O2847    O      0.182280000000     0.861070000000     0.628110000000     0          
S2848    S      0.234340000000     0.821200000000     0.598800000000     0          
C2849    C      0.256300000000     0.864200000000     0.603300000000     0          
C2850    C      0.217300000000     0.846100000000     0.609300000000     0          
C2851    C      0.191100000000     0.840300000000     0.622100000000     0          
C2852    C      0.233800000000     0.867900000000     0.609700000000     0          
C2853    C      0.260600000000     0.838500000000     0.594800000000     0          
H2854    H      0.097740000000     0.926840000000     0.742540000000     0          
H2855    H      0.148400000000     0.935130000000     0.710020000000     0          
H2856    H      0.226070000000     0.926660000000     0.531010000000     0          
Zr2857   Zr     0.787560000000     0.637830000000     0.591290000000     0          
Zr2858   Zr     0.838780000000     0.667210000000     0.620430000000     0          
S2859    S      0.914460000000     0.679510000000     0.565760000000     0          
O2860    O      0.875430000000     0.621200000000     0.585290000000     0          
O2861    O      0.871160000000     0.662320000000     0.593370000000     0          
O2862    O      0.950490000000     0.711930000000     0.542310000000     0          
O2863    O      0.974130000000     0.682600000000     0.524340000000     0          
O2864    O      0.827150000000     0.702150000000     0.640890000000     0          
O2865    O      0.790610000000     0.694510000000     0.660420000000     0          
O2866    O      0.750930000000     0.672920000000     0.637400000000     0          
O2867    O      0.752210000000     0.660750000000     0.597160000000     0          
O2868    O      0.803590000000     0.623160000000     0.554630000000     0          
O2869    O      0.837010000000     0.599560000000     0.564420000000     0          
O2870    O      0.825600000000     0.638320000000     0.598430000000     0          
O2871    O      0.797240000000     0.669340000000     0.616600000000     0          
O2872    O      0.757460000000     0.618420000000     0.573160000000     0          
O2873    O      0.789980000000     0.669080000000     0.564870000000     0          
O2874    O      0.968990000000     0.746750000000     0.573340000000     0          
C2875    C      0.881850000000     0.643750000000     0.583430000000     0          
C2876    C      0.903810000000     0.649440000000     0.567990000000     0          
C2877    C      0.917920000000     0.633400000000     0.554330000000     0          
H2878    H      0.913270000000     0.612680000000     0.554150000000     0          
C2879    C      0.937650000000     0.646160000000     0.541570000000     0          
H2880    H      0.950810000000     0.635360000000     0.528870000000     0          
C2881    C      0.938210000000     0.670700000000     0.546460000000     0          
C2882    C      0.955710000000     0.689970000000     0.536700000000     0          
C2883    C      0.810070000000     0.707160000000     0.656090000000     0          
C2884    C      0.813270000000     0.730540000000     0.670550000000     0          
C2885    C      0.800130000000     0.738800000000     0.690560000000     0          
H2886    H      0.783600000000     0.727590000000     0.697770000000     0          
C2887    C      0.743450000000     0.672950000000     0.615320000000     0          
C2888    C      0.721780000000     0.689450000000     0.608990000000     0          
C2889    C      0.711430000000     0.692960000000     0.586480000000     0          
H2890    H      0.717930000000     0.681410000000     0.569890000000     0          
C2891    C      0.821840000000     0.609530000000     0.549360000000     0          
C2892    C      0.827210000000     0.605290000000     0.522730000000     0          
C2893    C      0.847200000000     0.593100000000     0.513200000000     0          
H2894    H      0.861520000000     0.584370000000     0.526230000000     0          
O2895    O      0.835450000000     0.695310000000     0.591710000000     0          
C2896    C      0.820900000000     0.710300000000     0.591900000000     0          
O2897    O      0.801000000000     0.715000000000     0.588900000000     0          
O2898    O      0.871890000000     0.682280000000     0.638930000000     0          
S2899    S      0.901200000000     0.734340000000     0.678800000000     0          
C2900    C      0.896700000000     0.756300000000     0.635800000000     0          
C2901    C      0.890700000000     0.717300000000     0.653900000000     0          
C2902    C      0.877900000000     0.691100000000     0.659700000000     0          
C2903    C      0.890300000000     0.733800000000     0.632100000000     0          
C2904    C      0.905200000000     0.760600000000     0.661500000000     0          
H2905    H      0.757460000000     0.597740000000     0.573160000000     0          
H2906    H      0.789980000000     0.648400000000     0.564870000000     0          
H2907    H      0.968990000000     0.726070000000     0.573340000000     0          
Zr2908   Zr     0.287560000000     0.137830000000     0.091290000000     0          
Zr2909   Zr     0.338780000000     0.167210000000     0.120430000000     0          
S2910    S      0.414460000000     0.179510000000     0.065760000000     0          
O2911    O      0.375430000000     0.121200000000     0.085290000000     0          
O2912    O      0.371160000000     0.162320000000     0.093370000000     0          
O2913    O      0.450490000000     0.211930000000     0.042310000000     0          
O2914    O      0.474130000000     0.182600000000     0.024340000000     0          
O2915    O      0.327150000000     0.202150000000     0.140890000000     0          
O2916    O      0.290610000000     0.194510000000     0.160420000000     0          
O2917    O      0.250930000000     0.172920000000     0.137400000000     0          
O2918    O      0.252210000000     0.160750000000     0.097160000000     0          
O2919    O      0.303590000000     0.123160000000     0.054630000000     0          
O2920    O      0.337010000000     0.099560000000     0.064420000000     0          
O2921    O      0.325600000000     0.138320000000     0.098430000000     0          
O2922    O      0.297240000000     0.169340000000     0.116600000000     0          
O2923    O      0.257460000000     0.118420000000     0.073160000000     0          
O2924    O      0.289980000000     0.169080000000     0.064870000000     0          
O2925    O      0.468990000000     0.246750000000     0.073340000000     0          
C2926    C      0.381850000000     0.143750000000     0.083430000000     0          
C2927    C      0.403810000000     0.149440000000     0.067990000000     0          
C2928    C      0.417920000000     0.133400000000     0.054330000000     0          
H2929    H      0.413270000000     0.112680000000     0.054150000000     0          
C2930    C      0.437650000000     0.146160000000     0.041570000000     0          
H2931    H      0.450810000000     0.135360000000     0.028870000000     0          
C2932    C      0.438210000000     0.170700000000     0.046460000000     0          
C2933    C      0.455710000000     0.189970000000     0.036700000000     0          
C2934    C      0.310070000000     0.207160000000     0.156090000000     0          
C2935    C      0.313270000000     0.230540000000     0.170550000000     0          
C2936    C      0.300130000000     0.238800000000     0.190560000000     0          
H2937    H      0.283600000000     0.227590000000     0.197770000000     0          
C2938    C      0.243450000000     0.172950000000     0.115320000000     0          
C2939    C      0.221780000000     0.189450000000     0.108990000000     0          
C2940    C      0.211430000000     0.192960000000     0.086480000000     0          
H2941    H      0.217930000000     0.181410000000     0.069890000000     0          
C2942    C      0.321840000000     0.109530000000     0.049360000000     0          
C2943    C      0.327210000000     0.105290000000     0.022730000000     0          
C2944    C      0.347200000000     0.093100000000     0.013200000000     0          
H2945    H      0.361520000000     0.084370000000     0.026230000000     0          
O2946    O      0.335450000000     0.195310000000     0.091710000000     0          
C2947    C      0.320900000000     0.210300000000     0.091900000000     0          
O2948    O      0.301000000000     0.215000000000     0.088900000000     0          
O2949    O      0.371890000000     0.182280000000     0.138930000000     0          
S2950    S      0.401200000000     0.234340000000     0.178800000000     0          
C2951    C      0.396700000000     0.256300000000     0.135800000000     0          
C2952    C      0.390700000000     0.217300000000     0.153900000000     0          
C2953    C      0.377900000000     0.191100000000     0.159700000000     0          
C2954    C      0.390300000000     0.233800000000     0.132100000000     0          
C2955    C      0.405200000000     0.260600000000     0.161500000000     0          
H2956    H      0.257460000000     0.097740000000     0.073160000000     0          
H2957    H      0.289980000000     0.148400000000     0.064870000000     0          
H2958    H      0.468990000000     0.226070000000     0.073340000000     0          
Zr2959   Zr     0.787560000000     0.362170000000     0.408710000000     0          
Zr2960   Zr     0.838780000000     0.332790000000     0.379570000000     0          
S2961    S      0.914460000000     0.320490000000     0.434240000000     0          
O2962    O      0.875430000000     0.378800000000     0.414710000000     0          
O2963    O      0.871160000000     0.337680000000     0.406630000000     0          
O2964    O      0.950490000000     0.288070000000     0.457690000000     0          
O2965    O      0.974130000000     0.317400000000     0.475660000000     0          
O2966    O      0.827150000000     0.297850000000     0.359110000000     0          
O2967    O      0.790610000000     0.305490000000     0.339580000000     0          
O2968    O      0.750930000000     0.327080000000     0.362600000000     0          
O2969    O      0.752210000000     0.339250000000     0.402840000000     0          
O2970    O      0.803590000000     0.376840000000     0.445370000000     0          
O2971    O      0.837010000000     0.400440000000     0.435580000000     0          
O2972    O      0.825600000000     0.361680000000     0.401570000000     0          
O2973    O      0.797240000000     0.330660000000     0.383400000000     0          
O2974    O      0.757460000000     0.381580000000     0.426840000000     0          
O2975    O      0.789980000000     0.330920000000     0.435130000000     0          
O2976    O      0.968990000000     0.253250000000     0.426660000000     0          
C2977    C      0.881850000000     0.356250000000     0.416570000000     0          
C2978    C      0.903810000000     0.350560000000     0.432010000000     0          
C2979    C      0.917920000000     0.366600000000     0.445670000000     0          
H2980    H      0.913270000000     0.387320000000     0.445850000000     0          
C2981    C      0.937650000000     0.353840000000     0.458430000000     0          
H2982    H      0.950810000000     0.364640000000     0.471130000000     0          
C2983    C      0.938210000000     0.329300000000     0.453540000000     0          
C2984    C      0.955710000000     0.310030000000     0.463300000000     0          
C2985    C      0.810070000000     0.292840000000     0.343910000000     0          
C2986    C      0.813270000000     0.269460000000     0.329450000000     0          
C2987    C      0.800130000000     0.261200000000     0.309440000000     0          
H2988    H      0.783600000000     0.272410000000     0.302230000000     0          
C2989    C      0.743450000000     0.327050000000     0.384680000000     0          
C2990    C      0.721780000000     0.310550000000     0.391010000000     0          
C2991    C      0.711430000000     0.307040000000     0.413520000000     0          
H2992    H      0.717930000000     0.318590000000     0.430110000000     0          
C2993    C      0.821840000000     0.390470000000     0.450640000000     0          
C2994    C      0.827210000000     0.394710000000     0.477270000000     0          
C2995    C      0.847200000000     0.406900000000     0.486800000000     0          
H2996    H      0.861520000000     0.415630000000     0.473770000000     0          
O2997    O      0.835450000000     0.304690000000     0.408290000000     0          
C2998    C      0.820900000000     0.289700000000     0.408100000000     0          
O2999    O      0.801000000000     0.285000000000     0.411100000000     0          
O3000    O      0.871890000000     0.317720000000     0.361070000000     0          
S3001    S      0.901200000000     0.265660000000     0.321200000000     0          
C3002    C      0.896700000000     0.243700000000     0.364200000000     0          
C3003    C      0.890700000000     0.282700000000     0.346100000000     0          
C3004    C      0.877900000000     0.308900000000     0.340300000000     0          
C3005    C      0.890300000000     0.266200000000     0.367900000000     0          
C3006    C      0.905200000000     0.239400000000     0.338500000000     0          
H3007    H      0.757460000000     0.402260000000     0.426840000000     0          
H3008    H      0.789980000000     0.351600000000     0.435130000000     0          
H3009    H      0.968990000000     0.273930000000     0.426660000000     0          
Zr3010   Zr     0.287560000000     0.862170000000     0.908710000000     0          
Zr3011   Zr     0.338780000000     0.832790000000     0.879570000000     0          
S3012    S      0.414460000000     0.820490000000     0.934240000000     0          
O3013    O      0.375430000000     0.878800000000     0.914710000000     0          
O3014    O      0.371160000000     0.837680000000     0.906630000000     0          
O3015    O      0.450490000000     0.788070000000     0.957690000000     0          
O3016    O      0.474130000000     0.817400000000     0.975660000000     0          
O3017    O      0.327150000000     0.797850000000     0.859110000000     0          
O3018    O      0.290610000000     0.805490000000     0.839580000000     0          
O3019    O      0.250930000000     0.827080000000     0.862600000000     0          
O3020    O      0.252210000000     0.839250000000     0.902840000000     0          
O3021    O      0.303590000000     0.876840000000     0.945370000000     0          
O3022    O      0.337010000000     0.900440000000     0.935580000000     0          
O3023    O      0.325600000000     0.861680000000     0.901570000000     0          
O3024    O      0.297240000000     0.830660000000     0.883400000000     0          
O3025    O      0.257460000000     0.881580000000     0.926840000000     0          
O3026    O      0.289980000000     0.830920000000     0.935130000000     0          
O3027    O      0.468990000000     0.753250000000     0.926660000000     0          
C3028    C      0.381850000000     0.856250000000     0.916570000000     0          
C3029    C      0.403810000000     0.850560000000     0.932010000000     0          
C3030    C      0.417920000000     0.866600000000     0.945670000000     0          
H3031    H      0.413270000000     0.887320000000     0.945850000000     0          
C3032    C      0.437650000000     0.853840000000     0.958430000000     0          
H3033    H      0.450810000000     0.864640000000     0.971130000000     0          
C3034    C      0.438210000000     0.829300000000     0.953540000000     0          
C3035    C      0.455710000000     0.810030000000     0.963300000000     0          
C3036    C      0.310070000000     0.792840000000     0.843910000000     0          
C3037    C      0.313270000000     0.769460000000     0.829450000000     0          
C3038    C      0.300130000000     0.761200000000     0.809440000000     0          
H3039    H      0.283600000000     0.772410000000     0.802230000000     0          
C3040    C      0.243450000000     0.827050000000     0.884680000000     0          
C3041    C      0.221780000000     0.810550000000     0.891010000000     0          
C3042    C      0.211430000000     0.807040000000     0.913520000000     0          
H3043    H      0.217930000000     0.818590000000     0.930110000000     0          
C3044    C      0.321840000000     0.890470000000     0.950640000000     0          
C3045    C      0.327210000000     0.894710000000     0.977270000000     0          
C3046    C      0.347200000000     0.906900000000     0.986800000000     0          
H3047    H      0.361520000000     0.915630000000     0.973770000000     0          
O3048    O      0.335450000000     0.804690000000     0.908290000000     0          
C3049    C      0.320900000000     0.789700000000     0.908100000000     0          
O3050    O      0.301000000000     0.785000000000     0.911100000000     0          
O3051    O      0.371890000000     0.817720000000     0.861070000000     0          
S3052    S      0.401200000000     0.765660000000     0.821200000000     0          
C3053    C      0.396700000000     0.743700000000     0.864200000000     0          
C3054    C      0.390700000000     0.782700000000     0.846100000000     0          
C3055    C      0.377900000000     0.808900000000     0.840300000000     0          
C3056    C      0.390300000000     0.766200000000     0.867900000000     0          
C3057    C      0.405200000000     0.739400000000     0.838500000000     0          
H3058    H      0.257460000000     0.902260000000     0.926840000000     0          
H3059    H      0.289980000000     0.851600000000     0.935130000000     0          
H3060    H      0.468990000000     0.773930000000     0.926660000000     0          
Zr3061   Zr     0.212440000000     0.362170000000     0.591290000000     0          
Zr3062   Zr     0.161220000000     0.332790000000     0.620430000000     0          
S3063    S      0.085540000000     0.320490000000     0.565760000000     0          
O3064    O      0.124570000000     0.378800000000     0.585290000000     0          
O3065    O      0.128840000000     0.337680000000     0.593370000000     0          
O3066    O      0.049510000000     0.288070000000     0.542310000000     0          
O3067    O      0.025870000000     0.317400000000     0.524340000000     0          
O3068    O      0.172850000000     0.297850000000     0.640890000000     0          
O3069    O      0.209390000000     0.305490000000     0.660420000000     0          
O3070    O      0.249070000000     0.327080000000     0.637400000000     0          
O3071    O      0.247790000000     0.339250000000     0.597160000000     0          
O3072    O      0.196410000000     0.376840000000     0.554630000000     0          
O3073    O      0.162990000000     0.400440000000     0.564420000000     0          
O3074    O      0.174400000000     0.361680000000     0.598430000000     0          
O3075    O      0.202760000000     0.330660000000     0.616600000000     0          
O3076    O      0.242540000000     0.381580000000     0.573160000000     0          
O3077    O      0.210020000000     0.330920000000     0.564870000000     0          
O3078    O      0.031010000000     0.253250000000     0.573340000000     0          
C3079    C      0.118150000000     0.356250000000     0.583430000000     0          
C3080    C      0.096190000000     0.350560000000     0.567990000000     0          
C3081    C      0.082080000000     0.366600000000     0.554330000000     0          
H3082    H      0.086730000000     0.387320000000     0.554150000000     0          
C3083    C      0.062350000000     0.353840000000     0.541570000000     0          
H3084    H      0.049190000000     0.364640000000     0.528870000000     0          
C3085    C      0.061790000000     0.329300000000     0.546460000000     0          
C3086    C      0.044290000000     0.310030000000     0.536700000000     0          
C3087    C      0.189930000000     0.292840000000     0.656090000000     0          
C3088    C      0.186730000000     0.269460000000     0.670550000000     0          
C3089    C      0.199870000000     0.261200000000     0.690560000000     0          
H3090    H      0.216400000000     0.272410000000     0.697770000000     0          
C3091    C      0.256550000000     0.327050000000     0.615320000000     0          
C3092    C      0.278220000000     0.310550000000     0.608990000000     0          
C3093    C      0.288570000000     0.307040000000     0.586480000000     0          
H3094    H      0.282070000000     0.318590000000     0.569890000000     0          
C3095    C      0.178160000000     0.390470000000     0.549360000000     0          
C3096    C      0.172790000000     0.394710000000     0.522730000000     0          
C3097    C      0.152800000000     0.406900000000     0.513200000000     0          
H3098    H      0.138480000000     0.415630000000     0.526230000000     0          
O3099    O      0.164550000000     0.304690000000     0.591710000000     0          
C3100    C      0.179100000000     0.289700000000     0.591900000000     0          
O3101    O      0.199000000000     0.285000000000     0.588900000000     0          
O3102    O      0.128110000000     0.317720000000     0.638930000000     0          
S3103    S      0.098800000000     0.265660000000     0.678800000000     0          
C3104    C      0.103300000000     0.243700000000     0.635800000000     0          
C3105    C      0.109300000000     0.282700000000     0.653900000000     0          
C3106    C      0.122100000000     0.308900000000     0.659700000000     0          
C3107    C      0.109700000000     0.266200000000     0.632100000000     0          
C3108    C      0.094800000000     0.239400000000     0.661500000000     0          
H3109    H      0.242540000000     0.402260000000     0.573160000000     0          
H3110    H      0.210020000000     0.351600000000     0.564870000000     0          
H3111    H      0.031010000000     0.273930000000     0.573340000000     0          
Zr3112   Zr     0.712440000000     0.862170000000     0.091290000000     0          
Zr3113   Zr     0.661220000000     0.832790000000     0.120430000000     0          
S3114    S      0.585540000000     0.820490000000     0.065760000000     0          
O3115    O      0.624570000000     0.878800000000     0.085290000000     0          
O3116    O      0.628840000000     0.837680000000     0.093370000000     0          
O3117    O      0.549510000000     0.788070000000     0.042310000000     0          
O3118    O      0.525870000000     0.817400000000     0.024340000000     0          
O3119    O      0.672850000000     0.797850000000     0.140890000000     0          
O3120    O      0.709390000000     0.805490000000     0.160420000000     0          
O3121    O      0.749070000000     0.827080000000     0.137400000000     0          
O3122    O      0.747790000000     0.839250000000     0.097160000000     0          
O3123    O      0.696410000000     0.876840000000     0.054630000000     0          
O3124    O      0.662990000000     0.900440000000     0.064420000000     0          
O3125    O      0.674400000000     0.861680000000     0.098430000000     0          
O3126    O      0.702760000000     0.830660000000     0.116600000000     0          
O3127    O      0.742540000000     0.881580000000     0.073160000000     0          
O3128    O      0.710020000000     0.830920000000     0.064870000000     0          
O3129    O      0.531010000000     0.753250000000     0.073340000000     0          
C3130    C      0.618150000000     0.856250000000     0.083430000000     0          
C3131    C      0.596190000000     0.850560000000     0.067990000000     0          
C3132    C      0.582080000000     0.866600000000     0.054330000000     0          
H3133    H      0.586730000000     0.887320000000     0.054150000000     0          
C3134    C      0.562350000000     0.853840000000     0.041570000000     0          
H3135    H      0.549190000000     0.864640000000     0.028870000000     0          
C3136    C      0.561790000000     0.829300000000     0.046460000000     0          
C3137    C      0.544290000000     0.810030000000     0.036700000000     0          
C3138    C      0.689930000000     0.792840000000     0.156090000000     0          
C3139    C      0.686730000000     0.769460000000     0.170550000000     0          
C3140    C      0.699870000000     0.761200000000     0.190560000000     0          
H3141    H      0.716400000000     0.772410000000     0.197770000000     0          
C3142    C      0.756550000000     0.827050000000     0.115320000000     0          
C3143    C      0.778220000000     0.810550000000     0.108990000000     0          
C3144    C      0.788570000000     0.807040000000     0.086480000000     0          
H3145    H      0.782070000000     0.818590000000     0.069890000000     0          
C3146    C      0.678160000000     0.890470000000     0.049360000000     0          
C3147    C      0.672790000000     0.894710000000     0.022730000000     0          
C3148    C      0.652800000000     0.906900000000     0.013200000000     0          
H3149    H      0.638480000000     0.915630000000     0.026230000000     0          
O3150    O      0.664550000000     0.804690000000     0.091710000000     0          
C3151    C      0.679100000000     0.789700000000     0.091900000000     0          
O3152    O      0.699000000000     0.785000000000     0.088900000000     0          
O3153    O      0.628110000000     0.817720000000     0.138930000000     0          
S3154    S      0.598800000000     0.765660000000     0.178800000000     0          
C3155    C      0.603300000000     0.743700000000     0.135800000000     0          
C3156    C      0.609300000000     0.782700000000     0.153900000000     0          
C3157    C      0.622100000000     0.808900000000     0.159700000000     0          
C3158    C      0.609700000000     0.766200000000     0.132100000000     0          
C3159    C      0.594800000000     0.739400000000     0.161500000000     0          
H3160    H      0.742540000000     0.902260000000     0.073160000000     0          
H3161    H      0.710020000000     0.851600000000     0.064870000000     0          
H3162    H      0.531010000000     0.773930000000     0.073340000000     0          
Zr3163   Zr     0.212440000000     0.637830000000     0.408710000000     0          
Zr3164   Zr     0.161220000000     0.667210000000     0.379570000000     0          
S3165    S      0.085540000000     0.679510000000     0.434240000000     0          
O3166    O      0.124570000000     0.621200000000     0.414710000000     0          
O3167    O      0.128840000000     0.662320000000     0.406630000000     0          
O3168    O      0.049510000000     0.711930000000     0.457690000000     0          
O3169    O      0.025870000000     0.682600000000     0.475660000000     0          
O3170    O      0.172850000000     0.702150000000     0.359110000000     0          
O3171    O      0.209390000000     0.694510000000     0.339580000000     0          
O3172    O      0.249070000000     0.672920000000     0.362600000000     0          
O3173    O      0.247790000000     0.660750000000     0.402840000000     0          
O3174    O      0.196410000000     0.623160000000     0.445370000000     0          
O3175    O      0.162990000000     0.599560000000     0.435580000000     0          
O3176    O      0.174400000000     0.638320000000     0.401570000000     0          
O3177    O      0.202760000000     0.669340000000     0.383400000000     0          
O3178    O      0.242540000000     0.618420000000     0.426840000000     0          
O3179    O      0.210020000000     0.669080000000     0.435130000000     0          
O3180    O      0.031010000000     0.746750000000     0.426660000000     0          
C3181    C      0.118150000000     0.643750000000     0.416570000000     0          
C3182    C      0.096190000000     0.649440000000     0.432010000000     0          
C3183    C      0.082080000000     0.633400000000     0.445670000000     0          
H3184    H      0.086730000000     0.612680000000     0.445850000000     0          
C3185    C      0.062350000000     0.646160000000     0.458430000000     0          
H3186    H      0.049190000000     0.635360000000     0.471130000000     0          
C3187    C      0.061790000000     0.670700000000     0.453540000000     0          
C3188    C      0.044290000000     0.689970000000     0.463300000000     0          
C3189    C      0.189930000000     0.707160000000     0.343910000000     0          
C3190    C      0.186730000000     0.730540000000     0.329450000000     0          
C3191    C      0.199870000000     0.738800000000     0.309440000000     0          
H3192    H      0.216400000000     0.727590000000     0.302230000000     0          
C3193    C      0.256550000000     0.672950000000     0.384680000000     0          
C3194    C      0.278220000000     0.689450000000     0.391010000000     0          
C3195    C      0.288570000000     0.692960000000     0.413520000000     0          
H3196    H      0.282070000000     0.681410000000     0.430110000000     0          
C3197    C      0.178160000000     0.609530000000     0.450640000000     0          
C3198    C      0.172790000000     0.605290000000     0.477270000000     0          
C3199    C      0.152800000000     0.593100000000     0.486800000000     0          
H3200    H      0.138480000000     0.584370000000     0.473770000000     0          
O3201    O      0.164550000000     0.695310000000     0.408290000000     0          
C3202    C      0.179100000000     0.710300000000     0.408100000000     0          
O3203    O      0.199000000000     0.715000000000     0.411100000000     0          
O3204    O      0.128110000000     0.682280000000     0.361070000000     0          
S3205    S      0.098800000000     0.734340000000     0.321200000000     0          
C3206    C      0.103300000000     0.756300000000     0.364200000000     0          
C3207    C      0.109300000000     0.717300000000     0.346100000000     0          
C3208    C      0.122100000000     0.691100000000     0.340300000000     0          
C3209    C      0.109700000000     0.733800000000     0.367900000000     0          
C3210    C      0.094800000000     0.760600000000     0.338500000000     0          
H3211    H      0.242540000000     0.597740000000     0.426840000000     0          
H3212    H      0.210020000000     0.648400000000     0.435130000000     0          
H3213    H      0.031010000000     0.726070000000     0.426660000000     0          
Zr3214   Zr     0.712440000000     0.137830000000     0.908710000000     0          
Zr3215   Zr     0.661220000000     0.167210000000     0.879570000000     0          
S3216    S      0.585540000000     0.179510000000     0.934240000000     0          
O3217    O      0.624570000000     0.121200000000     0.914710000000     0          
O3218    O      0.628840000000     0.162320000000     0.906630000000     0          
O3219    O      0.549510000000     0.211930000000     0.957690000000     0          
O3220    O      0.525870000000     0.182600000000     0.975660000000     0          
O3221    O      0.672850000000     0.202150000000     0.859110000000     0          
O3222    O      0.709390000000     0.194510000000     0.839580000000     0          
O3223    O      0.749070000000     0.172920000000     0.862600000000     0          
O3224    O      0.747790000000     0.160750000000     0.902840000000     0          
O3225    O      0.696410000000     0.123160000000     0.945370000000     0          
O3226    O      0.662990000000     0.099560000000     0.935580000000     0          
O3227    O      0.674400000000     0.138320000000     0.901570000000     0          
O3228    O      0.702760000000     0.169340000000     0.883400000000     0          
O3229    O      0.742540000000     0.118420000000     0.926840000000     0          
O3230    O      0.710020000000     0.169080000000     0.935130000000     0          
O3231    O      0.531010000000     0.246750000000     0.926660000000     0          
C3232    C      0.618150000000     0.143750000000     0.916570000000     0          
C3233    C      0.596190000000     0.149440000000     0.932010000000     0          
C3234    C      0.582080000000     0.133400000000     0.945670000000     0          
H3235    H      0.586730000000     0.112680000000     0.945850000000     0          
C3236    C      0.562350000000     0.146160000000     0.958430000000     0          
H3237    H      0.549190000000     0.135360000000     0.971130000000     0          
C3238    C      0.561790000000     0.170700000000     0.953540000000     0          
C3239    C      0.544290000000     0.189970000000     0.963300000000     0          
C3240    C      0.689930000000     0.207160000000     0.843910000000     0          
C3241    C      0.686730000000     0.230540000000     0.829450000000     0          
C3242    C      0.699870000000     0.238800000000     0.809440000000     0          
H3243    H      0.716400000000     0.227590000000     0.802230000000     0          
C3244    C      0.756550000000     0.172950000000     0.884680000000     0          
C3245    C      0.778220000000     0.189450000000     0.891010000000     0          
C3246    C      0.788570000000     0.192960000000     0.913520000000     0          
H3247    H      0.782070000000     0.181410000000     0.930110000000     0          
C3248    C      0.678160000000     0.109530000000     0.950640000000     0          
C3249    C      0.672790000000     0.105290000000     0.977270000000     0          
C3250    C      0.652800000000     0.093100000000     0.986800000000     0          
H3251    H      0.638480000000     0.084370000000     0.973770000000     0          
O3252    O      0.664550000000     0.195310000000     0.908290000000     0          
C3253    C      0.679100000000     0.210300000000     0.908100000000     0          
O3254    O      0.699000000000     0.215000000000     0.911100000000     0          
O3255    O      0.628110000000     0.182280000000     0.861070000000     0          
S3256    S      0.598800000000     0.234340000000     0.821200000000     0          
C3257    C      0.603300000000     0.256300000000     0.864200000000     0          
C3258    C      0.609300000000     0.217300000000     0.846100000000     0          
C3259    C      0.622100000000     0.191100000000     0.840300000000     0          
C3260    C      0.609700000000     0.233800000000     0.867900000000     0          
C3261    C      0.594800000000     0.260600000000     0.838500000000     0          
H3262    H      0.742540000000     0.097740000000     0.926840000000     0          
H3263    H      0.710020000000     0.148400000000     0.935130000000     0          
H3264    H      0.531010000000     0.226070000000     0.926660000000     0          
Zr3265   Zr     0.591290000000     0.787560000000     0.637830000000     0          
Zr3266   Zr     0.620430000000     0.838780000000     0.667210000000     0          
S3267    S      0.565760000000     0.914460000000     0.679510000000     0          
O3268    O      0.585290000000     0.875430000000     0.621200000000     0          
O3269    O      0.593370000000     0.871160000000     0.662320000000     0          
O3270    O      0.542310000000     0.950490000000     0.711930000000     0          
O3271    O      0.524340000000     0.974130000000     0.682600000000     0          
O3272    O      0.640890000000     0.827150000000     0.702150000000     0          
O3273    O      0.660420000000     0.790610000000     0.694510000000     0          
O3274    O      0.637400000000     0.750930000000     0.672920000000     0          
O3275    O      0.597160000000     0.752210000000     0.660750000000     0          
O3276    O      0.554630000000     0.803590000000     0.623160000000     0          
O3277    O      0.564420000000     0.837010000000     0.599560000000     0          
O3278    O      0.598430000000     0.825600000000     0.638320000000     0          
O3279    O      0.616600000000     0.797240000000     0.669340000000     0          
O3280    O      0.573160000000     0.757460000000     0.618420000000     0          
O3281    O      0.564870000000     0.789980000000     0.669080000000     0          
O3282    O      0.573340000000     0.968990000000     0.746750000000     0          
C3283    C      0.583430000000     0.881850000000     0.643750000000     0          
C3284    C      0.567990000000     0.903810000000     0.649440000000     0          
C3285    C      0.554330000000     0.917920000000     0.633400000000     0          
H3286    H      0.554150000000     0.913270000000     0.612680000000     0          
C3287    C      0.541570000000     0.937650000000     0.646160000000     0          
H3288    H      0.528870000000     0.950810000000     0.635360000000     0          
C3289    C      0.546460000000     0.938210000000     0.670700000000     0          
C3290    C      0.536700000000     0.955710000000     0.689970000000     0          
C3291    C      0.656090000000     0.810070000000     0.707160000000     0          
C3292    C      0.670550000000     0.813270000000     0.730540000000     0          
C3293    C      0.690560000000     0.800130000000     0.738800000000     0          
H3294    H      0.697770000000     0.783600000000     0.727590000000     0          
C3295    C      0.615320000000     0.743450000000     0.672950000000     0          
C3296    C      0.608990000000     0.721780000000     0.689450000000     0          
C3297    C      0.586480000000     0.711430000000     0.692960000000     0          
H3298    H      0.569890000000     0.717930000000     0.681410000000     0          
C3299    C      0.549360000000     0.821840000000     0.609530000000     0          
C3300    C      0.522730000000     0.827210000000     0.605290000000     0          
C3301    C      0.513200000000     0.847200000000     0.593100000000     0          
H3302    H      0.526230000000     0.861520000000     0.584370000000     0          
O3303    O      0.591710000000     0.835450000000     0.695310000000     0          
C3304    C      0.591900000000     0.820900000000     0.710300000000     0          
O3305    O      0.588900000000     0.801000000000     0.715000000000     0          
O3306    O      0.638930000000     0.871890000000     0.682280000000     0          
S3307    S      0.678800000000     0.901200000000     0.734340000000     0          
C3308    C      0.635800000000     0.896700000000     0.756300000000     0          
C3309    C      0.653900000000     0.890700000000     0.717300000000     0          
C3310    C      0.659700000000     0.877900000000     0.691100000000     0          
C3311    C      0.632100000000     0.890300000000     0.733800000000     0          
C3312    C      0.661500000000     0.905200000000     0.760600000000     0          
H3313    H      0.573160000000     0.757460000000     0.597740000000     0          
H3314    H      0.564870000000     0.789980000000     0.648400000000     0          
H3315    H      0.573340000000     0.968990000000     0.726070000000     0          
Zr3316   Zr     0.091290000000     0.287560000000     0.137830000000     0          
Zr3317   Zr     0.120430000000     0.338780000000     0.167210000000     0          
S3318    S      0.065760000000     0.414460000000     0.179510000000     0          
O3319    O      0.085290000000     0.375430000000     0.121200000000     0          
O3320    O      0.093370000000     0.371160000000     0.162320000000     0          
O3321    O      0.042310000000     0.450490000000     0.211930000000     0          
O3322    O      0.024340000000     0.474130000000     0.182600000000     0          
O3323    O      0.140890000000     0.327150000000     0.202150000000     0          
O3324    O      0.160420000000     0.290610000000     0.194510000000     0          
O3325    O      0.137400000000     0.250930000000     0.172920000000     0          
O3326    O      0.097160000000     0.252210000000     0.160750000000     0          
O3327    O      0.054630000000     0.303590000000     0.123160000000     0          
O3328    O      0.064420000000     0.337010000000     0.099560000000     0          
O3329    O      0.098430000000     0.325600000000     0.138320000000     0          
O3330    O      0.116600000000     0.297240000000     0.169340000000     0          
O3331    O      0.073160000000     0.257460000000     0.118420000000     0          
O3332    O      0.064870000000     0.289980000000     0.169080000000     0          
O3333    O      0.073340000000     0.468990000000     0.246750000000     0          
C3334    C      0.083430000000     0.381850000000     0.143750000000     0          
C3335    C      0.067990000000     0.403810000000     0.149440000000     0          
C3336    C      0.054330000000     0.417920000000     0.133400000000     0          
H3337    H      0.054150000000     0.413270000000     0.112680000000     0          
C3338    C      0.041570000000     0.437650000000     0.146160000000     0          
H3339    H      0.028870000000     0.450810000000     0.135360000000     0          
C3340    C      0.046460000000     0.438210000000     0.170700000000     0          
C3341    C      0.036700000000     0.455710000000     0.189970000000     0          
C3342    C      0.156090000000     0.310070000000     0.207160000000     0          
C3343    C      0.170550000000     0.313270000000     0.230540000000     0          
C3344    C      0.190560000000     0.300130000000     0.238800000000     0          
H3345    H      0.197770000000     0.283600000000     0.227590000000     0          
C3346    C      0.115320000000     0.243450000000     0.172950000000     0          
C3347    C      0.108990000000     0.221780000000     0.189450000000     0          
C3348    C      0.086480000000     0.211430000000     0.192960000000     0          
H3349    H      0.069890000000     0.217930000000     0.181410000000     0          
C3350    C      0.049360000000     0.321840000000     0.109530000000     0          
C3351    C      0.022730000000     0.327210000000     0.105290000000     0          
C3352    C      0.013200000000     0.347200000000     0.093100000000     0          
H3353    H      0.026230000000     0.361520000000     0.084370000000     0          
O3354    O      0.091710000000     0.335450000000     0.195310000000     0          
C3355    C      0.091900000000     0.320900000000     0.210300000000     0          
O3356    O      0.088900000000     0.301000000000     0.215000000000     0          
O3357    O      0.138930000000     0.371890000000     0.182280000000     0          
S3358    S      0.178800000000     0.401200000000     0.234340000000     0          
C3359    C      0.135800000000     0.396700000000     0.256300000000     0          
C3360    C      0.153900000000     0.390700000000     0.217300000000     0          
C3361    C      0.159700000000     0.377900000000     0.191100000000     0          
C3362    C      0.132100000000     0.390300000000     0.233800000000     0          
C3363    C      0.161500000000     0.405200000000     0.260600000000     0          
H3364    H      0.073160000000     0.257460000000     0.097740000000     0          
H3365    H      0.064870000000     0.289980000000     0.148400000000     0          
H3366    H      0.073340000000     0.468990000000     0.226070000000     0          
Zr3367   Zr     0.408710000000     0.787560000000     0.362170000000     0          
Zr3368   Zr     0.379570000000     0.838780000000     0.332790000000     0          
S3369    S      0.434240000000     0.914460000000     0.320490000000     0          
O3370    O      0.414710000000     0.875430000000     0.378800000000     0          
O3371    O      0.406630000000     0.871160000000     0.337680000000     0          
O3372    O      0.457690000000     0.950490000000     0.288070000000     0          
O3373    O      0.475660000000     0.974130000000     0.317400000000     0          
O3374    O      0.359110000000     0.827150000000     0.297850000000     0          
O3375    O      0.339580000000     0.790610000000     0.305490000000     0          
O3376    O      0.362600000000     0.750930000000     0.327080000000     0          
O3377    O      0.402840000000     0.752210000000     0.339250000000     0          
O3378    O      0.445370000000     0.803590000000     0.376840000000     0          
O3379    O      0.435580000000     0.837010000000     0.400440000000     0          
O3380    O      0.401570000000     0.825600000000     0.361680000000     0          
O3381    O      0.383400000000     0.797240000000     0.330660000000     0          
O3382    O      0.426840000000     0.757460000000     0.381580000000     0          
O3383    O      0.435130000000     0.789980000000     0.330920000000     0          
O3384    O      0.426660000000     0.968990000000     0.253250000000     0          
C3385    C      0.416570000000     0.881850000000     0.356250000000     0          
C3386    C      0.432010000000     0.903810000000     0.350560000000     0          
C3387    C      0.445670000000     0.917920000000     0.366600000000     0          
H3388    H      0.445850000000     0.913270000000     0.387320000000     0          
C3389    C      0.458430000000     0.937650000000     0.353840000000     0          
H3390    H      0.471130000000     0.950810000000     0.364640000000     0          
C3391    C      0.453540000000     0.938210000000     0.329300000000     0          
C3392    C      0.463300000000     0.955710000000     0.310030000000     0          
C3393    C      0.343910000000     0.810070000000     0.292840000000     0          
C3394    C      0.329450000000     0.813270000000     0.269460000000     0          
C3395    C      0.309440000000     0.800130000000     0.261200000000     0          
H3396    H      0.302230000000     0.783600000000     0.272410000000     0          
C3397    C      0.384680000000     0.743450000000     0.327050000000     0          
C3398    C      0.391010000000     0.721780000000     0.310550000000     0          
C3399    C      0.413520000000     0.711430000000     0.307040000000     0          
H3400    H      0.430110000000     0.717930000000     0.318590000000     0          
C3401    C      0.450640000000     0.821840000000     0.390470000000     0          
C3402    C      0.477270000000     0.827210000000     0.394710000000     0          
C3403    C      0.486800000000     0.847200000000     0.406900000000     0          
H3404    H      0.473770000000     0.861520000000     0.415630000000     0          
O3405    O      0.408290000000     0.835450000000     0.304690000000     0          
C3406    C      0.408100000000     0.820900000000     0.289700000000     0          
O3407    O      0.411100000000     0.801000000000     0.285000000000     0          
O3408    O      0.361070000000     0.871890000000     0.317720000000     0          
S3409    S      0.321200000000     0.901200000000     0.265660000000     0          
C3410    C      0.364200000000     0.896700000000     0.243700000000     0          
C3411    C      0.346100000000     0.890700000000     0.282700000000     0          
C3412    C      0.340300000000     0.877900000000     0.308900000000     0          
C3413    C      0.367900000000     0.890300000000     0.266200000000     0          
C3414    C      0.338500000000     0.905200000000     0.239400000000     0          
H3415    H      0.426840000000     0.757460000000     0.402260000000     0          
H3416    H      0.435130000000     0.789980000000     0.351600000000     0          
H3417    H      0.426660000000     0.968990000000     0.273930000000     0          
Zr3418   Zr     0.908710000000     0.287560000000     0.862170000000     0          
Zr3419   Zr     0.879570000000     0.338780000000     0.832790000000     0          
S3420    S      0.934240000000     0.414460000000     0.820490000000     0          
O3421    O      0.914710000000     0.375430000000     0.878800000000     0          
O3422    O      0.906630000000     0.371160000000     0.837680000000     0          
O3423    O      0.957690000000     0.450490000000     0.788070000000     0          
O3424    O      0.975660000000     0.474130000000     0.817400000000     0          
O3425    O      0.859110000000     0.327150000000     0.797850000000     0          
O3426    O      0.839580000000     0.290610000000     0.805490000000     0          
O3427    O      0.862600000000     0.250930000000     0.827080000000     0          
O3428    O      0.902840000000     0.252210000000     0.839250000000     0          
O3429    O      0.945370000000     0.303590000000     0.876840000000     0          
O3430    O      0.935580000000     0.337010000000     0.900440000000     0          
O3431    O      0.901570000000     0.325600000000     0.861680000000     0          
O3432    O      0.883400000000     0.297240000000     0.830660000000     0          
O3433    O      0.926840000000     0.257460000000     0.881580000000     0          
O3434    O      0.935130000000     0.289980000000     0.830920000000     0          
O3435    O      0.926660000000     0.468990000000     0.753250000000     0          
C3436    C      0.916570000000     0.381850000000     0.856250000000     0          
C3437    C      0.932010000000     0.403810000000     0.850560000000     0          
C3438    C      0.945670000000     0.417920000000     0.866600000000     0          
H3439    H      0.945850000000     0.413270000000     0.887320000000     0          
C3440    C      0.958430000000     0.437650000000     0.853840000000     0          
H3441    H      0.971130000000     0.450810000000     0.864640000000     0          
C3442    C      0.953540000000     0.438210000000     0.829300000000     0          
C3443    C      0.963300000000     0.455710000000     0.810030000000     0          
C3444    C      0.843910000000     0.310070000000     0.792840000000     0          
C3445    C      0.829450000000     0.313270000000     0.769460000000     0          
C3446    C      0.809440000000     0.300130000000     0.761200000000     0          
H3447    H      0.802230000000     0.283600000000     0.772410000000     0          
C3448    C      0.884680000000     0.243450000000     0.827050000000     0          
C3449    C      0.891010000000     0.221780000000     0.810550000000     0          
C3450    C      0.913520000000     0.211430000000     0.807040000000     0          
H3451    H      0.930110000000     0.217930000000     0.818590000000     0          
C3452    C      0.950640000000     0.321840000000     0.890470000000     0          
C3453    C      0.977270000000     0.327210000000     0.894710000000     0          
C3454    C      0.986800000000     0.347200000000     0.906900000000     0          
H3455    H      0.973770000000     0.361520000000     0.915630000000     0          
O3456    O      0.908290000000     0.335450000000     0.804690000000     0          
C3457    C      0.908100000000     0.320900000000     0.789700000000     0          
O3458    O      0.911100000000     0.301000000000     0.785000000000     0          
O3459    O      0.861070000000     0.371890000000     0.817720000000     0          
S3460    S      0.821200000000     0.401200000000     0.765660000000     0          
C3461    C      0.864200000000     0.396700000000     0.743700000000     0          
C3462    C      0.846100000000     0.390700000000     0.782700000000     0          
C3463    C      0.840300000000     0.377900000000     0.808900000000     0          
C3464    C      0.867900000000     0.390300000000     0.766200000000     0          
C3465    C      0.838500000000     0.405200000000     0.739400000000     0          
H3466    H      0.926840000000     0.257460000000     0.902260000000     0          
H3467    H      0.935130000000     0.289980000000     0.851600000000     0          
H3468    H      0.926660000000     0.468990000000     0.773930000000     0          
Zr3469   Zr     0.591290000000     0.212440000000     0.362170000000     0          
Zr3470   Zr     0.620430000000     0.161220000000     0.332790000000     0          
S3471    S      0.565760000000     0.085540000000     0.320490000000     0          
O3472    O      0.585290000000     0.124570000000     0.378800000000     0          
O3473    O      0.593370000000     0.128840000000     0.337680000000     0          
O3474    O      0.542310000000     0.049510000000     0.288070000000     0          
O3475    O      0.524340000000     0.025870000000     0.317400000000     0          
O3476    O      0.640890000000     0.172850000000     0.297850000000     0          
O3477    O      0.660420000000     0.209390000000     0.305490000000     0          
O3478    O      0.637400000000     0.249070000000     0.327080000000     0          
O3479    O      0.597160000000     0.247790000000     0.339250000000     0          
O3480    O      0.554630000000     0.196410000000     0.376840000000     0          
O3481    O      0.564420000000     0.162990000000     0.400440000000     0          
O3482    O      0.598430000000     0.174400000000     0.361680000000     0          
O3483    O      0.616600000000     0.202760000000     0.330660000000     0          
O3484    O      0.573160000000     0.242540000000     0.381580000000     0          
O3485    O      0.564870000000     0.210020000000     0.330920000000     0          
O3486    O      0.573340000000     0.031010000000     0.253250000000     0          
C3487    C      0.583430000000     0.118150000000     0.356250000000     0          
C3488    C      0.567990000000     0.096190000000     0.350560000000     0          
C3489    C      0.554330000000     0.082080000000     0.366600000000     0          
H3490    H      0.554150000000     0.086730000000     0.387320000000     0          
C3491    C      0.541570000000     0.062350000000     0.353840000000     0          
H3492    H      0.528870000000     0.049190000000     0.364640000000     0          
C3493    C      0.546460000000     0.061790000000     0.329300000000     0          
C3494    C      0.536700000000     0.044290000000     0.310030000000     0          
C3495    C      0.656090000000     0.189930000000     0.292840000000     0          
C3496    C      0.670550000000     0.186730000000     0.269460000000     0          
C3497    C      0.690560000000     0.199870000000     0.261200000000     0          
H3498    H      0.697770000000     0.216400000000     0.272410000000     0          
C3499    C      0.615320000000     0.256550000000     0.327050000000     0          
C3500    C      0.608990000000     0.278220000000     0.310550000000     0          
C3501    C      0.586480000000     0.288570000000     0.307040000000     0          
H3502    H      0.569890000000     0.282070000000     0.318590000000     0          
C3503    C      0.549360000000     0.178160000000     0.390470000000     0          
C3504    C      0.522730000000     0.172790000000     0.394710000000     0          
C3505    C      0.513200000000     0.152800000000     0.406900000000     0          
H3506    H      0.526230000000     0.138480000000     0.415630000000     0          
O3507    O      0.591710000000     0.164550000000     0.304690000000     0          
C3508    C      0.591900000000     0.179100000000     0.289700000000     0          
O3509    O      0.588900000000     0.199000000000     0.285000000000     0          
O3510    O      0.638930000000     0.128110000000     0.317720000000     0          
S3511    S      0.678800000000     0.098800000000     0.265660000000     0          
C3512    C      0.635800000000     0.103300000000     0.243700000000     0          
C3513    C      0.653900000000     0.109300000000     0.282700000000     0          
C3514    C      0.659700000000     0.122100000000     0.308900000000     0          
C3515    C      0.632100000000     0.109700000000     0.266200000000     0          
C3516    C      0.661500000000     0.094800000000     0.239400000000     0          
H3517    H      0.573160000000     0.242540000000     0.402260000000     0          
H3518    H      0.564870000000     0.210020000000     0.351600000000     0          
H3519    H      0.573340000000     0.031010000000     0.273930000000     0          
Zr3520   Zr     0.091290000000     0.712440000000     0.862170000000     0          
Zr3521   Zr     0.120430000000     0.661220000000     0.832790000000     0          
S3522    S      0.065760000000     0.585540000000     0.820490000000     0          
O3523    O      0.085290000000     0.624570000000     0.878800000000     0          
O3524    O      0.093370000000     0.628840000000     0.837680000000     0          
O3525    O      0.042310000000     0.549510000000     0.788070000000     0          
O3526    O      0.024340000000     0.525870000000     0.817400000000     0          
O3527    O      0.140890000000     0.672850000000     0.797850000000     0          
O3528    O      0.160420000000     0.709390000000     0.805490000000     0          
O3529    O      0.137400000000     0.749070000000     0.827080000000     0          
O3530    O      0.097160000000     0.747790000000     0.839250000000     0          
O3531    O      0.054630000000     0.696410000000     0.876840000000     0          
O3532    O      0.064420000000     0.662990000000     0.900440000000     0          
O3533    O      0.098430000000     0.674400000000     0.861680000000     0          
O3534    O      0.116600000000     0.702760000000     0.830660000000     0          
O3535    O      0.073160000000     0.742540000000     0.881580000000     0          
O3536    O      0.064870000000     0.710020000000     0.830920000000     0          
O3537    O      0.073340000000     0.531010000000     0.753250000000     0          
C3538    C      0.083430000000     0.618150000000     0.856250000000     0          
C3539    C      0.067990000000     0.596190000000     0.850560000000     0          
C3540    C      0.054330000000     0.582080000000     0.866600000000     0          
H3541    H      0.054150000000     0.586730000000     0.887320000000     0          
C3542    C      0.041570000000     0.562350000000     0.853840000000     0          
H3543    H      0.028870000000     0.549190000000     0.864640000000     0          
C3544    C      0.046460000000     0.561790000000     0.829300000000     0          
C3545    C      0.036700000000     0.544290000000     0.810030000000     0          
C3546    C      0.156090000000     0.689930000000     0.792840000000     0          
C3547    C      0.170550000000     0.686730000000     0.769460000000     0          
C3548    C      0.190560000000     0.699870000000     0.761200000000     0          
H3549    H      0.197770000000     0.716400000000     0.772410000000     0          
C3550    C      0.115320000000     0.756550000000     0.827050000000     0          
C3551    C      0.108990000000     0.778220000000     0.810550000000     0          
C3552    C      0.086480000000     0.788570000000     0.807040000000     0          
H3553    H      0.069890000000     0.782070000000     0.818590000000     0          
C3554    C      0.049360000000     0.678160000000     0.890470000000     0          
C3555    C      0.022730000000     0.672790000000     0.894710000000     0          
C3556    C      0.013200000000     0.652800000000     0.906900000000     0          
H3557    H      0.026230000000     0.638480000000     0.915630000000     0          
O3558    O      0.091710000000     0.664550000000     0.804690000000     0          
C3559    C      0.091900000000     0.679100000000     0.789700000000     0          
O3560    O      0.088900000000     0.699000000000     0.785000000000     0          
O3561    O      0.138930000000     0.628110000000     0.817720000000     0          
S3562    S      0.178800000000     0.598800000000     0.765660000000     0          
C3563    C      0.135800000000     0.603300000000     0.743700000000     0          
C3564    C      0.153900000000     0.609300000000     0.782700000000     0          
C3565    C      0.159700000000     0.622100000000     0.808900000000     0          
C3566    C      0.132100000000     0.609700000000     0.766200000000     0          
C3567    C      0.161500000000     0.594800000000     0.739400000000     0          
H3568    H      0.073160000000     0.742540000000     0.902260000000     0          
H3569    H      0.064870000000     0.710020000000     0.851600000000     0          
H3570    H      0.073340000000     0.531010000000     0.773930000000     0          
Zr3571   Zr     0.408710000000     0.212440000000     0.637830000000     0          
Zr3572   Zr     0.379570000000     0.161220000000     0.667210000000     0          
S3573    S      0.434240000000     0.085540000000     0.679510000000     0          
O3574    O      0.414710000000     0.124570000000     0.621200000000     0          
O3575    O      0.406630000000     0.128840000000     0.662320000000     0          
O3576    O      0.457690000000     0.049510000000     0.711930000000     0          
O3577    O      0.475660000000     0.025870000000     0.682600000000     0          
O3578    O      0.359110000000     0.172850000000     0.702150000000     0          
O3579    O      0.339580000000     0.209390000000     0.694510000000     0          
O3580    O      0.362600000000     0.249070000000     0.672920000000     0          
O3581    O      0.402840000000     0.247790000000     0.660750000000     0          
O3582    O      0.445370000000     0.196410000000     0.623160000000     0          
O3583    O      0.435580000000     0.162990000000     0.599560000000     0          
O3584    O      0.401570000000     0.174400000000     0.638320000000     0          
O3585    O      0.383400000000     0.202760000000     0.669340000000     0          
O3586    O      0.426840000000     0.242540000000     0.618420000000     0          
O3587    O      0.435130000000     0.210020000000     0.669080000000     0          
O3588    O      0.426660000000     0.031010000000     0.746750000000     0          
C3589    C      0.416570000000     0.118150000000     0.643750000000     0          
C3590    C      0.432010000000     0.096190000000     0.649440000000     0          
C3591    C      0.445670000000     0.082080000000     0.633400000000     0          
H3592    H      0.445850000000     0.086730000000     0.612680000000     0          
C3593    C      0.458430000000     0.062350000000     0.646160000000     0          
H3594    H      0.471130000000     0.049190000000     0.635360000000     0          
C3595    C      0.453540000000     0.061790000000     0.670700000000     0          
C3596    C      0.463300000000     0.044290000000     0.689970000000     0          
C3597    C      0.343910000000     0.189930000000     0.707160000000     0          
C3598    C      0.329450000000     0.186730000000     0.730540000000     0          
C3599    C      0.309440000000     0.199870000000     0.738800000000     0          
H3600    H      0.302230000000     0.216400000000     0.727590000000     0          
C3601    C      0.384680000000     0.256550000000     0.672950000000     0          
C3602    C      0.391010000000     0.278220000000     0.689450000000     0          
C3603    C      0.413520000000     0.288570000000     0.692960000000     0          
H3604    H      0.430110000000     0.282070000000     0.681410000000     0          
C3605    C      0.450640000000     0.178160000000     0.609530000000     0          
C3606    C      0.477270000000     0.172790000000     0.605290000000     0          
C3607    C      0.486800000000     0.152800000000     0.593100000000     0          
H3608    H      0.473770000000     0.138480000000     0.584370000000     0          
O3609    O      0.408290000000     0.164550000000     0.695310000000     0          
C3610    C      0.408100000000     0.179100000000     0.710300000000     0          
O3611    O      0.411100000000     0.199000000000     0.715000000000     0          
O3612    O      0.361070000000     0.128110000000     0.682280000000     0          
S3613    S      0.321200000000     0.098800000000     0.734340000000     0          
C3614    C      0.364200000000     0.103300000000     0.756300000000     0          
C3615    C      0.346100000000     0.109300000000     0.717300000000     0          
C3616    C      0.340300000000     0.122100000000     0.691100000000     0          
C3617    C      0.367900000000     0.109700000000     0.733800000000     0          
C3618    C      0.338500000000     0.094800000000     0.760600000000     0          
H3619    H      0.426840000000     0.242540000000     0.597740000000     0          
H3620    H      0.435130000000     0.210020000000     0.648400000000     0          
H3621    H      0.426660000000     0.031010000000     0.726070000000     0          
Zr3622   Zr     0.908710000000     0.712440000000     0.137830000000     0          
Zr3623   Zr     0.879570000000     0.661220000000     0.167210000000     0          
S3624    S      0.934240000000     0.585540000000     0.179510000000     0          
O3625    O      0.914710000000     0.624570000000     0.121200000000     0          
O3626    O      0.906630000000     0.628840000000     0.162320000000     0          
O3627    O      0.957690000000     0.549510000000     0.211930000000     0          
O3628    O      0.975660000000     0.525870000000     0.182600000000     0          
O3629    O      0.859110000000     0.672850000000     0.202150000000     0          
O3630    O      0.839580000000     0.709390000000     0.194510000000     0          
O3631    O      0.862600000000     0.749070000000     0.172920000000     0          
O3632    O      0.902840000000     0.747790000000     0.160750000000     0          
O3633    O      0.945370000000     0.696410000000     0.123160000000     0          
O3634    O      0.935580000000     0.662990000000     0.099560000000     0          
O3635    O      0.901570000000     0.674400000000     0.138320000000     0          
O3636    O      0.883400000000     0.702760000000     0.169340000000     0          
O3637    O      0.926840000000     0.742540000000     0.118420000000     0          
O3638    O      0.935130000000     0.710020000000     0.169080000000     0          
O3639    O      0.926660000000     0.531010000000     0.246750000000     0          
C3640    C      0.916570000000     0.618150000000     0.143750000000     0          
C3641    C      0.932010000000     0.596190000000     0.149440000000     0          
C3642    C      0.945670000000     0.582080000000     0.133400000000     0          
H3643    H      0.945850000000     0.586730000000     0.112680000000     0          
C3644    C      0.958430000000     0.562350000000     0.146160000000     0          
H3645    H      0.971130000000     0.549190000000     0.135360000000     0          
C3646    C      0.953540000000     0.561790000000     0.170700000000     0          
C3647    C      0.963300000000     0.544290000000     0.189970000000     0          
C3648    C      0.843910000000     0.689930000000     0.207160000000     0          
C3649    C      0.829450000000     0.686730000000     0.230540000000     0          
C3650    C      0.809440000000     0.699870000000     0.238800000000     0          
H3651    H      0.802230000000     0.716400000000     0.227590000000     0          
C3652    C      0.884680000000     0.756550000000     0.172950000000     0          
C3653    C      0.891010000000     0.778220000000     0.189450000000     0          
C3654    C      0.913520000000     0.788570000000     0.192960000000     0          
H3655    H      0.930110000000     0.782070000000     0.181410000000     0          
C3656    C      0.950640000000     0.678160000000     0.109530000000     0          
C3657    C      0.977270000000     0.672790000000     0.105290000000     0          
C3658    C      0.986800000000     0.652800000000     0.093100000000     0          
H3659    H      0.973770000000     0.638480000000     0.084370000000     0          
O3660    O      0.908290000000     0.664550000000     0.195310000000     0          
C3661    C      0.908100000000     0.679100000000     0.210300000000     0          
O3662    O      0.911100000000     0.699000000000     0.215000000000     0          
O3663    O      0.861070000000     0.628110000000     0.182280000000     0          
S3664    S      0.821200000000     0.598800000000     0.234340000000     0          
C3665    C      0.864200000000     0.603300000000     0.256300000000     0          
C3666    C      0.846100000000     0.609300000000     0.217300000000     0          
C3667    C      0.840300000000     0.622100000000     0.191100000000     0          
C3668    C      0.867900000000     0.609700000000     0.233800000000     0          
C3669    C      0.838500000000     0.594800000000     0.260600000000     0          
H3670    H      0.926840000000     0.742540000000     0.097740000000     0          
H3671    H      0.935130000000     0.710020000000     0.148400000000     0          
H3672    H      0.926660000000     0.531010000000     0.226070000000     0          
Zr3673   Zr     0.591290000000     0.637830000000     0.212440000000     0          
Zr3674   Zr     0.620430000000     0.667210000000     0.161220000000     0          
S3675    S      0.565760000000     0.679510000000     0.085540000000     0          
O3676    O      0.585290000000     0.621200000000     0.124570000000     0          
O3677    O      0.593370000000     0.662320000000     0.128840000000     0          
O3678    O      0.542310000000     0.711930000000     0.049510000000     0          
O3679    O      0.524340000000     0.682600000000     0.025870000000     0          
O3680    O      0.640890000000     0.702150000000     0.172850000000     0          
O3681    O      0.660420000000     0.694510000000     0.209390000000     0          
O3682    O      0.637400000000     0.672920000000     0.249070000000     0          
O3683    O      0.597160000000     0.660750000000     0.247790000000     0          
O3684    O      0.554630000000     0.623160000000     0.196410000000     0          
O3685    O      0.564420000000     0.599560000000     0.162990000000     0          
O3686    O      0.598430000000     0.638320000000     0.174400000000     0          
O3687    O      0.616600000000     0.669340000000     0.202760000000     0          
O3688    O      0.573160000000     0.618420000000     0.242540000000     0          
O3689    O      0.564870000000     0.669080000000     0.210020000000     0          
O3690    O      0.573340000000     0.746750000000     0.031010000000     0          
C3691    C      0.583430000000     0.643750000000     0.118150000000     0          
C3692    C      0.567990000000     0.649440000000     0.096190000000     0          
C3693    C      0.554330000000     0.633400000000     0.082080000000     0          
H3694    H      0.554150000000     0.612680000000     0.086730000000     0          
C3695    C      0.541570000000     0.646160000000     0.062350000000     0          
H3696    H      0.528870000000     0.635360000000     0.049190000000     0          
C3697    C      0.546460000000     0.670700000000     0.061790000000     0          
C3698    C      0.536700000000     0.689970000000     0.044290000000     0          
C3699    C      0.656090000000     0.707160000000     0.189930000000     0          
C3700    C      0.670550000000     0.730540000000     0.186730000000     0          
C3701    C      0.690560000000     0.738800000000     0.199870000000     0          
H3702    H      0.697770000000     0.727590000000     0.216400000000     0          
C3703    C      0.615320000000     0.672950000000     0.256550000000     0          
C3704    C      0.608990000000     0.689450000000     0.278220000000     0          
C3705    C      0.586480000000     0.692960000000     0.288570000000     0          
H3706    H      0.569890000000     0.681410000000     0.282070000000     0          
C3707    C      0.549360000000     0.609530000000     0.178160000000     0          
C3708    C      0.522730000000     0.605290000000     0.172790000000     0          
C3709    C      0.513200000000     0.593100000000     0.152800000000     0          
H3710    H      0.526230000000     0.584370000000     0.138480000000     0          
O3711    O      0.591710000000     0.695310000000     0.164550000000     0          
C3712    C      0.591900000000     0.710300000000     0.179100000000     0          
O3713    O      0.588900000000     0.715000000000     0.199000000000     0          
O3714    O      0.638930000000     0.682280000000     0.128110000000     0          
S3715    S      0.678800000000     0.734340000000     0.098800000000     0          
C3716    C      0.635800000000     0.756300000000     0.103300000000     0          
C3717    C      0.653900000000     0.717300000000     0.109300000000     0          
C3718    C      0.659700000000     0.691100000000     0.122100000000     0          
C3719    C      0.632100000000     0.733800000000     0.109700000000     0          
C3720    C      0.661500000000     0.760600000000     0.094800000000     0          
H3721    H      0.573160000000     0.597740000000     0.242540000000     0          
H3722    H      0.564870000000     0.648400000000     0.210020000000     0          
H3723    H      0.573340000000     0.726070000000     0.031010000000     0          
Zr3724   Zr     0.091290000000     0.137830000000     0.712440000000     0          
Zr3725   Zr     0.120430000000     0.167210000000     0.661220000000     0          
S3726    S      0.065760000000     0.179510000000     0.585540000000     0          
O3727    O      0.085290000000     0.121200000000     0.624570000000     0          
O3728    O      0.093370000000     0.162320000000     0.628840000000     0          
O3729    O      0.042310000000     0.211930000000     0.549510000000     0          
O3730    O      0.024340000000     0.182600000000     0.525870000000     0          
O3731    O      0.140890000000     0.202150000000     0.672850000000     0          
O3732    O      0.160420000000     0.194510000000     0.709390000000     0          
O3733    O      0.137400000000     0.172920000000     0.749070000000     0          
O3734    O      0.097160000000     0.160750000000     0.747790000000     0          
O3735    O      0.054630000000     0.123160000000     0.696410000000     0          
O3736    O      0.064420000000     0.099560000000     0.662990000000     0          
O3737    O      0.098430000000     0.138320000000     0.674400000000     0          
O3738    O      0.116600000000     0.169340000000     0.702760000000     0          
O3739    O      0.073160000000     0.118420000000     0.742540000000     0          
O3740    O      0.064870000000     0.169080000000     0.710020000000     0          
O3741    O      0.073340000000     0.246750000000     0.531010000000     0          
C3742    C      0.083430000000     0.143750000000     0.618150000000     0          
C3743    C      0.067990000000     0.149440000000     0.596190000000     0          
C3744    C      0.054330000000     0.133400000000     0.582080000000     0          
H3745    H      0.054150000000     0.112680000000     0.586730000000     0          
C3746    C      0.041570000000     0.146160000000     0.562350000000     0          
H3747    H      0.028870000000     0.135360000000     0.549190000000     0          
C3748    C      0.046460000000     0.170700000000     0.561790000000     0          
C3749    C      0.036700000000     0.189970000000     0.544290000000     0          
C3750    C      0.156090000000     0.207160000000     0.689930000000     0          
C3751    C      0.170550000000     0.230540000000     0.686730000000     0          
C3752    C      0.190560000000     0.238800000000     0.699870000000     0          
H3753    H      0.197770000000     0.227590000000     0.716400000000     0          
C3754    C      0.115320000000     0.172950000000     0.756550000000     0          
C3755    C      0.108990000000     0.189450000000     0.778220000000     0          
C3756    C      0.086480000000     0.192960000000     0.788570000000     0          
H3757    H      0.069890000000     0.181410000000     0.782070000000     0          
C3758    C      0.049360000000     0.109530000000     0.678160000000     0          
C3759    C      0.022730000000     0.105290000000     0.672790000000     0          
C3760    C      0.013200000000     0.093100000000     0.652800000000     0          
H3761    H      0.026230000000     0.084370000000     0.638480000000     0          
O3762    O      0.091710000000     0.195310000000     0.664550000000     0          
C3763    C      0.091900000000     0.210300000000     0.679100000000     0          
O3764    O      0.088900000000     0.215000000000     0.699000000000     0          
O3765    O      0.138930000000     0.182280000000     0.628110000000     0          
S3766    S      0.178800000000     0.234340000000     0.598800000000     0          
C3767    C      0.135800000000     0.256300000000     0.603300000000     0          
C3768    C      0.153900000000     0.217300000000     0.609300000000     0          
C3769    C      0.159700000000     0.191100000000     0.622100000000     0          
C3770    C      0.132100000000     0.233800000000     0.609700000000     0          
C3771    C      0.161500000000     0.260600000000     0.594800000000     0          
H3772    H      0.073160000000     0.097740000000     0.742540000000     0          
H3773    H      0.064870000000     0.148400000000     0.710020000000     0          
H3774    H      0.073340000000     0.226070000000     0.531010000000     0          
Zr3775   Zr     0.408710000000     0.362170000000     0.212440000000     0          
Zr3776   Zr     0.379570000000     0.332790000000     0.161220000000     0          
S3777    S      0.434240000000     0.320490000000     0.085540000000     0          
O3778    O      0.414710000000     0.378800000000     0.124570000000     0          
O3779    O      0.406630000000     0.337680000000     0.128840000000     0          
O3780    O      0.457690000000     0.288070000000     0.049510000000     0          
O3781    O      0.475660000000     0.317400000000     0.025870000000     0          
O3782    O      0.359110000000     0.297850000000     0.172850000000     0          
O3783    O      0.339580000000     0.305490000000     0.209390000000     0          
O3784    O      0.362600000000     0.327080000000     0.249070000000     0          
O3785    O      0.402840000000     0.339250000000     0.247790000000     0          
O3786    O      0.445370000000     0.376840000000     0.196410000000     0          
O3787    O      0.435580000000     0.400440000000     0.162990000000     0          
O3788    O      0.401570000000     0.361680000000     0.174400000000     0          
O3789    O      0.383400000000     0.330660000000     0.202760000000     0          
O3790    O      0.426840000000     0.381580000000     0.242540000000     0          
O3791    O      0.435130000000     0.330920000000     0.210020000000     0          
O3792    O      0.426660000000     0.253250000000     0.031010000000     0          
C3793    C      0.416570000000     0.356250000000     0.118150000000     0          
C3794    C      0.432010000000     0.350560000000     0.096190000000     0          
C3795    C      0.445670000000     0.366600000000     0.082080000000     0          
H3796    H      0.445850000000     0.387320000000     0.086730000000     0          
C3797    C      0.458430000000     0.353840000000     0.062350000000     0          
H3798    H      0.471130000000     0.364640000000     0.049190000000     0          
C3799    C      0.453540000000     0.329300000000     0.061790000000     0          
C3800    C      0.463300000000     0.310030000000     0.044290000000     0          
C3801    C      0.343910000000     0.292840000000     0.189930000000     0          
C3802    C      0.329450000000     0.269460000000     0.186730000000     0          
C3803    C      0.309440000000     0.261200000000     0.199870000000     0          
H3804    H      0.302230000000     0.272410000000     0.216400000000     0          
C3805    C      0.384680000000     0.327050000000     0.256550000000     0          
C3806    C      0.391010000000     0.310550000000     0.278220000000     0          
C3807    C      0.413520000000     0.307040000000     0.288570000000     0          
H3808    H      0.430110000000     0.318590000000     0.282070000000     0          
C3809    C      0.450640000000     0.390470000000     0.178160000000     0          
C3810    C      0.477270000000     0.394710000000     0.172790000000     0          
C3811    C      0.486800000000     0.406900000000     0.152800000000     0          
H3812    H      0.473770000000     0.415630000000     0.138480000000     0          
O3813    O      0.408290000000     0.304690000000     0.164550000000     0          
C3814    C      0.408100000000     0.289700000000     0.179100000000     0          
O3815    O      0.411100000000     0.285000000000     0.199000000000     0          
O3816    O      0.361070000000     0.317720000000     0.128110000000     0          
S3817    S      0.321200000000     0.265660000000     0.098800000000     0          
C3818    C      0.364200000000     0.243700000000     0.103300000000     0          
C3819    C      0.346100000000     0.282700000000     0.109300000000     0          
C3820    C      0.340300000000     0.308900000000     0.122100000000     0          
C3821    C      0.367900000000     0.266200000000     0.109700000000     0          
C3822    C      0.338500000000     0.239400000000     0.094800000000     0          
H3823    H      0.426840000000     0.402260000000     0.242540000000     0          
H3824    H      0.435130000000     0.351600000000     0.210020000000     0          
H3825    H      0.426660000000     0.273930000000     0.031010000000     0          
Zr3826   Zr     0.908710000000     0.862170000000     0.712440000000     0          
Zr3827   Zr     0.879570000000     0.832790000000     0.661220000000     0          
S3828    S      0.934240000000     0.820490000000     0.585540000000     0          
O3829    O      0.914710000000     0.878800000000     0.624570000000     0          
O3830    O      0.906630000000     0.837680000000     0.628840000000     0          
O3831    O      0.957690000000     0.788070000000     0.549510000000     0          
O3832    O      0.975660000000     0.817400000000     0.525870000000     0          
O3833    O      0.859110000000     0.797850000000     0.672850000000     0          
O3834    O      0.839580000000     0.805490000000     0.709390000000     0          
O3835    O      0.862600000000     0.827080000000     0.749070000000     0          
O3836    O      0.902840000000     0.839250000000     0.747790000000     0          
O3837    O      0.945370000000     0.876840000000     0.696410000000     0          
O3838    O      0.935580000000     0.900440000000     0.662990000000     0          
O3839    O      0.901570000000     0.861680000000     0.674400000000     0          
O3840    O      0.883400000000     0.830660000000     0.702760000000     0          
O3841    O      0.926840000000     0.881580000000     0.742540000000     0          
O3842    O      0.935130000000     0.830920000000     0.710020000000     0          
O3843    O      0.926660000000     0.753250000000     0.531010000000     0          
C3844    C      0.916570000000     0.856250000000     0.618150000000     0          
C3845    C      0.932010000000     0.850560000000     0.596190000000     0          
C3846    C      0.945670000000     0.866600000000     0.582080000000     0          
H3847    H      0.945850000000     0.887320000000     0.586730000000     0          
C3848    C      0.958430000000     0.853840000000     0.562350000000     0          
H3849    H      0.971130000000     0.864640000000     0.549190000000     0          
C3850    C      0.953540000000     0.829300000000     0.561790000000     0          
C3851    C      0.963300000000     0.810030000000     0.544290000000     0          
C3852    C      0.843910000000     0.792840000000     0.689930000000     0          
C3853    C      0.829450000000     0.769460000000     0.686730000000     0          
C3854    C      0.809440000000     0.761200000000     0.699870000000     0          
H3855    H      0.802230000000     0.772410000000     0.716400000000     0          
C3856    C      0.884680000000     0.827050000000     0.756550000000     0          
C3857    C      0.891010000000     0.810550000000     0.778220000000     0          
C3858    C      0.913520000000     0.807040000000     0.788570000000     0          
H3859    H      0.930110000000     0.818590000000     0.782070000000     0          
C3860    C      0.950640000000     0.890470000000     0.678160000000     0          
C3861    C      0.977270000000     0.894710000000     0.672790000000     0          
C3862    C      0.986800000000     0.906900000000     0.652800000000     0          
H3863    H      0.973770000000     0.915630000000     0.638480000000     0          
O3864    O      0.908290000000     0.804690000000     0.664550000000     0          
C3865    C      0.908100000000     0.789700000000     0.679100000000     0          
O3866    O      0.911100000000     0.785000000000     0.699000000000     0          
O3867    O      0.861070000000     0.817720000000     0.628110000000     0          
S3868    S      0.821200000000     0.765660000000     0.598800000000     0          
C3869    C      0.864200000000     0.743700000000     0.603300000000     0          
C3870    C      0.846100000000     0.782700000000     0.609300000000     0          
C3871    C      0.840300000000     0.808900000000     0.622100000000     0          
C3872    C      0.867900000000     0.766200000000     0.609700000000     0          
C3873    C      0.838500000000     0.739400000000     0.594800000000     0          
H3874    H      0.926840000000     0.902260000000     0.742540000000     0          
H3875    H      0.935130000000     0.851600000000     0.710020000000     0          
H3876    H      0.926660000000     0.773930000000     0.531010000000     0          
Zr3877   Zr     0.591290000000     0.362170000000     0.787560000000     0          
Zr3878   Zr     0.620430000000     0.332790000000     0.838780000000     0          
S3879    S      0.565760000000     0.320490000000     0.914460000000     0          
O3880    O      0.585290000000     0.378800000000     0.875430000000     0          
O3881    O      0.593370000000     0.337680000000     0.871160000000     0          
O3882    O      0.542310000000     0.288070000000     0.950490000000     0          
O3883    O      0.524340000000     0.317400000000     0.974130000000     0          
O3884    O      0.640890000000     0.297850000000     0.827150000000     0          
O3885    O      0.660420000000     0.305490000000     0.790610000000     0          
O3886    O      0.637400000000     0.327080000000     0.750930000000     0          
O3887    O      0.597160000000     0.339250000000     0.752210000000     0          
O3888    O      0.554630000000     0.376840000000     0.803590000000     0          
O3889    O      0.564420000000     0.400440000000     0.837010000000     0          
O3890    O      0.598430000000     0.361680000000     0.825600000000     0          
O3891    O      0.616600000000     0.330660000000     0.797240000000     0          
O3892    O      0.573160000000     0.381580000000     0.757460000000     0          
O3893    O      0.564870000000     0.330920000000     0.789980000000     0          
O3894    O      0.573340000000     0.253250000000     0.968990000000     0          
C3895    C      0.583430000000     0.356250000000     0.881850000000     0          
C3896    C      0.567990000000     0.350560000000     0.903810000000     0          
C3897    C      0.554330000000     0.366600000000     0.917920000000     0          
H3898    H      0.554150000000     0.387320000000     0.913270000000     0          
C3899    C      0.541570000000     0.353840000000     0.937650000000     0          
H3900    H      0.528870000000     0.364640000000     0.950810000000     0          
C3901    C      0.546460000000     0.329300000000     0.938210000000     0          
C3902    C      0.536700000000     0.310030000000     0.955710000000     0          
C3903    C      0.656090000000     0.292840000000     0.810070000000     0          
C3904    C      0.670550000000     0.269460000000     0.813270000000     0          
C3905    C      0.690560000000     0.261200000000     0.800130000000     0          
H3906    H      0.697770000000     0.272410000000     0.783600000000     0          
C3907    C      0.615320000000     0.327050000000     0.743450000000     0          
C3908    C      0.608990000000     0.310550000000     0.721780000000     0          
C3909    C      0.586480000000     0.307040000000     0.711430000000     0          
H3910    H      0.569890000000     0.318590000000     0.717930000000     0          
C3911    C      0.549360000000     0.390470000000     0.821840000000     0          
C3912    C      0.522730000000     0.394710000000     0.827210000000     0          
C3913    C      0.513200000000     0.406900000000     0.847200000000     0          
H3914    H      0.526230000000     0.415630000000     0.861520000000     0          
O3915    O      0.591710000000     0.304690000000     0.835450000000     0          
C3916    C      0.591900000000     0.289700000000     0.820900000000     0          
O3917    O      0.588900000000     0.285000000000     0.801000000000     0          
O3918    O      0.638930000000     0.317720000000     0.871890000000     0          
S3919    S      0.678800000000     0.265660000000     0.901200000000     0          
C3920    C      0.635800000000     0.243700000000     0.896700000000     0          
C3921    C      0.653900000000     0.282700000000     0.890700000000     0          
C3922    C      0.659700000000     0.308900000000     0.877900000000     0          
C3923    C      0.632100000000     0.266200000000     0.890300000000     0          
C3924    C      0.661500000000     0.239400000000     0.905200000000     0          
H3925    H      0.573160000000     0.402260000000     0.757460000000     0          
H3926    H      0.564870000000     0.351600000000     0.789980000000     0          
H3927    H      0.573340000000     0.273930000000     0.968990000000     0          
Zr3928   Zr     0.091290000000     0.862170000000     0.287560000000     0          
Zr3929   Zr     0.120430000000     0.832790000000     0.338780000000     0          
S3930    S      0.065760000000     0.820490000000     0.414460000000     0          
O3931    O      0.085290000000     0.878800000000     0.375430000000     0          
O3932    O      0.093370000000     0.837680000000     0.371160000000     0          
O3933    O      0.042310000000     0.788070000000     0.450490000000     0          
O3934    O      0.024340000000     0.817400000000     0.474130000000     0          
O3935    O      0.140890000000     0.797850000000     0.327150000000     0          
O3936    O      0.160420000000     0.805490000000     0.290610000000     0          
O3937    O      0.137400000000     0.827080000000     0.250930000000     0          
O3938    O      0.097160000000     0.839250000000     0.252210000000     0          
O3939    O      0.054630000000     0.876840000000     0.303590000000     0          
O3940    O      0.064420000000     0.900440000000     0.337010000000     0          
O3941    O      0.098430000000     0.861680000000     0.325600000000     0          
O3942    O      0.116600000000     0.830660000000     0.297240000000     0          
O3943    O      0.073160000000     0.881580000000     0.257460000000     0          
O3944    O      0.064870000000     0.830920000000     0.289980000000     0          
O3945    O      0.073340000000     0.753250000000     0.468990000000     0          
C3946    C      0.083430000000     0.856250000000     0.381850000000     0          
C3947    C      0.067990000000     0.850560000000     0.403810000000     0          
C3948    C      0.054330000000     0.866600000000     0.417920000000     0          
H3949    H      0.054150000000     0.887320000000     0.413270000000     0          
C3950    C      0.041570000000     0.853840000000     0.437650000000     0          
H3951    H      0.028870000000     0.864640000000     0.450810000000     0          
C3952    C      0.046460000000     0.829300000000     0.438210000000     0          
C3953    C      0.036700000000     0.810030000000     0.455710000000     0          
C3954    C      0.156090000000     0.792840000000     0.310070000000     0          
C3955    C      0.170550000000     0.769460000000     0.313270000000     0          
C3956    C      0.190560000000     0.761200000000     0.300130000000     0          
H3957    H      0.197770000000     0.772410000000     0.283600000000     0          
C3958    C      0.115320000000     0.827050000000     0.243450000000     0          
C3959    C      0.108990000000     0.810550000000     0.221780000000     0          
C3960    C      0.086480000000     0.807040000000     0.211430000000     0          
H3961    H      0.069890000000     0.818590000000     0.217930000000     0          
C3962    C      0.049360000000     0.890470000000     0.321840000000     0          
C3963    C      0.022730000000     0.894710000000     0.327210000000     0          
C3964    C      0.013200000000     0.906900000000     0.347200000000     0          
H3965    H      0.026230000000     0.915630000000     0.361520000000     0          
O3966    O      0.091710000000     0.804690000000     0.335450000000     0          
C3967    C      0.091900000000     0.789700000000     0.320900000000     0          
O3968    O      0.088900000000     0.785000000000     0.301000000000     0          
O3969    O      0.138930000000     0.817720000000     0.371890000000     0          
S3970    S      0.178800000000     0.765660000000     0.401200000000     0          
C3971    C      0.135800000000     0.743700000000     0.396700000000     0          
C3972    C      0.153900000000     0.782700000000     0.390700000000     0          
C3973    C      0.159700000000     0.808900000000     0.377900000000     0          
C3974    C      0.132100000000     0.766200000000     0.390300000000     0          
C3975    C      0.161500000000     0.739400000000     0.405200000000     0          
H3976    H      0.073160000000     0.902260000000     0.257460000000     0          
H3977    H      0.064870000000     0.851600000000     0.289980000000     0          
H3978    H      0.073340000000     0.773930000000     0.468990000000     0          
Zr3979   Zr     0.408710000000     0.637830000000     0.787560000000     0          
Zr3980   Zr     0.379570000000     0.667210000000     0.838780000000     0          
S3981    S      0.434240000000     0.679510000000     0.914460000000     0          
O3982    O      0.414710000000     0.621200000000     0.875430000000     0          
O3983    O      0.406630000000     0.662320000000     0.871160000000     0          
O3984    O      0.457690000000     0.711930000000     0.950490000000     0          
O3985    O      0.475660000000     0.682600000000     0.974130000000     0          
O3986    O      0.359110000000     0.702150000000     0.827150000000     0          
O3987    O      0.339580000000     0.694510000000     0.790610000000     0          
O3988    O      0.362600000000     0.672920000000     0.750930000000     0          
O3989    O      0.402840000000     0.660750000000     0.752210000000     0          
O3990    O      0.445370000000     0.623160000000     0.803590000000     0          
O3991    O      0.435580000000     0.599560000000     0.837010000000     0          
O3992    O      0.401570000000     0.638320000000     0.825600000000     0          
O3993    O      0.383400000000     0.669340000000     0.797240000000     0          
O3994    O      0.426840000000     0.618420000000     0.757460000000     0          
O3995    O      0.435130000000     0.669080000000     0.789980000000     0          
O3996    O      0.426660000000     0.746750000000     0.968990000000     0          
C3997    C      0.416570000000     0.643750000000     0.881850000000     0          
C3998    C      0.432010000000     0.649440000000     0.903810000000     0          
C3999    C      0.445670000000     0.633400000000     0.917920000000     0          
H4000    H      0.445850000000     0.612680000000     0.913270000000     0          
C4001    C      0.458430000000     0.646160000000     0.937650000000     0          
H4002    H      0.471130000000     0.635360000000     0.950810000000     0          
C4003    C      0.453540000000     0.670700000000     0.938210000000     0          
C4004    C      0.463300000000     0.689970000000     0.955710000000     0          
C4005    C      0.343910000000     0.707160000000     0.810070000000     0          
C4006    C      0.329450000000     0.730540000000     0.813270000000     0          
C4007    C      0.309440000000     0.738800000000     0.800130000000     0          
H4008    H      0.302230000000     0.727590000000     0.783600000000     0          
C4009    C      0.384680000000     0.672950000000     0.743450000000     0          
C4010    C      0.391010000000     0.689450000000     0.721780000000     0          
C4011    C      0.413520000000     0.692960000000     0.711430000000     0          
H4012    H      0.430110000000     0.681410000000     0.717930000000     0          
C4013    C      0.450640000000     0.609530000000     0.821840000000     0          
C4014    C      0.477270000000     0.605290000000     0.827210000000     0          
C4015    C      0.486800000000     0.593100000000     0.847200000000     0          
H4016    H      0.473770000000     0.584370000000     0.861520000000     0          
O4017    O      0.408290000000     0.695310000000     0.835450000000     0          
C4018    C      0.408100000000     0.710300000000     0.820900000000     0          
O4019    O      0.411100000000     0.715000000000     0.801000000000     0          
O4020    O      0.361070000000     0.682280000000     0.871890000000     0          
S4021    S      0.321200000000     0.734340000000     0.901200000000     0          
C4022    C      0.364200000000     0.756300000000     0.896700000000     0          
C4023    C      0.346100000000     0.717300000000     0.890700000000     0          
C4024    C      0.340300000000     0.691100000000     0.877900000000     0          
C4025    C      0.367900000000     0.733800000000     0.890300000000     0          
C4026    C      0.338500000000     0.760600000000     0.905200000000     0          
H4027    H      0.426840000000     0.597740000000     0.757460000000     0          
H4028    H      0.435130000000     0.648400000000     0.789980000000     0          
H4029    H      0.426660000000     0.726070000000     0.968990000000     0          
Zr4030   Zr     0.908710000000     0.137830000000     0.287560000000     0          
Zr4031   Zr     0.879570000000     0.167210000000     0.338780000000     0          
S4032    S      0.934240000000     0.179510000000     0.414460000000     0          
O4033    O      0.914710000000     0.121200000000     0.375430000000     0          
O4034    O      0.906630000000     0.162320000000     0.371160000000     0          
O4035    O      0.957690000000     0.211930000000     0.450490000000     0          
O4036    O      0.975660000000     0.182600000000     0.474130000000     0          
O4037    O      0.859110000000     0.202150000000     0.327150000000     0          
O4038    O      0.839580000000     0.194510000000     0.290610000000     0          
O4039    O      0.862600000000     0.172920000000     0.250930000000     0          
O4040    O      0.902840000000     0.160750000000     0.252210000000     0          
O4041    O      0.945370000000     0.123160000000     0.303590000000     0          
O4042    O      0.935580000000     0.099560000000     0.337010000000     0          
O4043    O      0.901570000000     0.138320000000     0.325600000000     0          
O4044    O      0.883400000000     0.169340000000     0.297240000000     0          
O4045    O      0.926840000000     0.118420000000     0.257460000000     0          
O4046    O      0.935130000000     0.169080000000     0.289980000000     0          
O4047    O      0.926660000000     0.246750000000     0.468990000000     0          
C4048    C      0.916570000000     0.143750000000     0.381850000000     0          
C4049    C      0.932010000000     0.149440000000     0.403810000000     0          
C4050    C      0.945670000000     0.133400000000     0.417920000000     0          
H4051    H      0.945850000000     0.112680000000     0.413270000000     0          
C4052    C      0.958430000000     0.146160000000     0.437650000000     0          
H4053    H      0.971130000000     0.135360000000     0.450810000000     0          
C4054    C      0.953540000000     0.170700000000     0.438210000000     0          
C4055    C      0.963300000000     0.189970000000     0.455710000000     0          
C4056    C      0.843910000000     0.207160000000     0.310070000000     0          
C4057    C      0.829450000000     0.230540000000     0.313270000000     0          
C4058    C      0.809440000000     0.238800000000     0.300130000000     0          
H4059    H      0.802230000000     0.227590000000     0.283600000000     0          
C4060    C      0.884680000000     0.172950000000     0.243450000000     0          
C4061    C      0.891010000000     0.189450000000     0.221780000000     0          
C4062    C      0.913520000000     0.192960000000     0.211430000000     0          
H4063    H      0.930110000000     0.181410000000     0.217930000000     0          
C4064    C      0.950640000000     0.109530000000     0.321840000000     0          
C4065    C      0.977270000000     0.105290000000     0.327210000000     0          
C4066    C      0.986800000000     0.093100000000     0.347200000000     0          
H4067    H      0.973770000000     0.084370000000     0.361520000000     0          
O4068    O      0.908290000000     0.195310000000     0.335450000000     0          
C4069    C      0.908100000000     0.210300000000     0.320900000000     0          
O4070    O      0.911100000000     0.215000000000     0.301000000000     0          
O4071    O      0.861070000000     0.182280000000     0.371890000000     0          
S4072    S      0.821200000000     0.234340000000     0.401200000000     0          
C4073    C      0.864200000000     0.256300000000     0.396700000000     0          
C4074    C      0.846100000000     0.217300000000     0.390700000000     0          
C4075    C      0.840300000000     0.191100000000     0.377900000000     0          
C4076    C      0.867900000000     0.233800000000     0.390300000000     0          
C4077    C      0.838500000000     0.260600000000     0.405200000000     0          
H4078    H      0.926840000000     0.097740000000     0.257460000000     0          
H4079    H      0.935130000000     0.148400000000     0.289980000000     0          
H4080    H      0.926660000000     0.226070000000     0.468990000000     0          
Zr4081   Zr     0.637830000000     0.787560000000     0.408710000000     0          
Zr4082   Zr     0.667210000000     0.838780000000     0.379570000000     0          
S4083    S      0.679510000000     0.914460000000     0.434240000000     0          
O4084    O      0.621200000000     0.875430000000     0.414710000000     0          
O4085    O      0.662320000000     0.871160000000     0.406630000000     0          
O4086    O      0.711930000000     0.950490000000     0.457690000000     0          
O4087    O      0.682600000000     0.974130000000     0.475660000000     0          
O4088    O      0.702150000000     0.827150000000     0.359110000000     0          
O4089    O      0.694510000000     0.790610000000     0.339580000000     0          
O4090    O      0.672920000000     0.750930000000     0.362600000000     0          
O4091    O      0.660750000000     0.752210000000     0.402840000000     0          
O4092    O      0.623160000000     0.803590000000     0.445370000000     0          
O4093    O      0.599560000000     0.837010000000     0.435580000000     0          
O4094    O      0.638320000000     0.825600000000     0.401570000000     0          
O4095    O      0.669340000000     0.797240000000     0.383400000000     0          
O4096    O      0.618420000000     0.757460000000     0.426840000000     0          
O4097    O      0.669080000000     0.789980000000     0.435130000000     0          
O4098    O      0.746750000000     0.968990000000     0.426660000000     0          
C4099    C      0.643750000000     0.881850000000     0.416570000000     0          
C4100    C      0.649440000000     0.903810000000     0.432010000000     0          
C4101    C      0.633400000000     0.917920000000     0.445670000000     0          
H4102    H      0.612680000000     0.913270000000     0.445850000000     0          
C4103    C      0.646160000000     0.937650000000     0.458430000000     0          
H4104    H      0.635360000000     0.950810000000     0.471130000000     0          
C4105    C      0.670700000000     0.938210000000     0.453540000000     0          
C4106    C      0.689970000000     0.955710000000     0.463300000000     0          
C4107    C      0.707160000000     0.810070000000     0.343910000000     0          
C4108    C      0.730540000000     0.813270000000     0.329450000000     0          
C4109    C      0.738800000000     0.800130000000     0.309440000000     0          
H4110    H      0.727590000000     0.783600000000     0.302230000000     0          
C4111    C      0.672950000000     0.743450000000     0.384680000000     0          
C4112    C      0.689450000000     0.721780000000     0.391010000000     0          
C4113    C      0.692960000000     0.711430000000     0.413520000000     0          
H4114    H      0.681410000000     0.717930000000     0.430110000000     0          
C4115    C      0.609530000000     0.821840000000     0.450640000000     0          
C4116    C      0.605290000000     0.827210000000     0.477270000000     0          
C4117    C      0.593100000000     0.847200000000     0.486800000000     0          
H4118    H      0.584370000000     0.861520000000     0.473770000000     0          
O4119    O      0.695310000000     0.835450000000     0.408290000000     0          
C4120    C      0.710300000000     0.820900000000     0.408100000000     0          
O4121    O      0.715000000000     0.801000000000     0.411100000000     0          
O4122    O      0.682280000000     0.871890000000     0.361070000000     0          
S4123    S      0.734340000000     0.901200000000     0.321200000000     0          
C4124    C      0.756300000000     0.896700000000     0.364200000000     0          
C4125    C      0.717300000000     0.890700000000     0.346100000000     0          
C4126    C      0.691100000000     0.877900000000     0.340300000000     0          
C4127    C      0.733800000000     0.890300000000     0.367900000000     0          
C4128    C      0.760600000000     0.905200000000     0.338500000000     0          
H4129    H      0.597740000000     0.757460000000     0.426840000000     0          
H4130    H      0.648400000000     0.789980000000     0.435130000000     0          
H4131    H      0.726070000000     0.968990000000     0.426660000000     0          
Zr4132   Zr     0.137830000000     0.287560000000     0.908710000000     0          
Zr4133   Zr     0.167210000000     0.338780000000     0.879570000000     0          
S4134    S      0.179510000000     0.414460000000     0.934240000000     0          
O4135    O      0.121200000000     0.375430000000     0.914710000000     0          
O4136    O      0.162320000000     0.371160000000     0.906630000000     0          
O4137    O      0.211930000000     0.450490000000     0.957690000000     0          
O4138    O      0.182600000000     0.474130000000     0.975660000000     0          
O4139    O      0.202150000000     0.327150000000     0.859110000000     0          
O4140    O      0.194510000000     0.290610000000     0.839580000000     0          
O4141    O      0.172920000000     0.250930000000     0.862600000000     0          
O4142    O      0.160750000000     0.252210000000     0.902840000000     0          
O4143    O      0.123160000000     0.303590000000     0.945370000000     0          
O4144    O      0.099560000000     0.337010000000     0.935580000000     0          
O4145    O      0.138320000000     0.325600000000     0.901570000000     0          
O4146    O      0.169340000000     0.297240000000     0.883400000000     0          
O4147    O      0.118420000000     0.257460000000     0.926840000000     0          
O4148    O      0.169080000000     0.289980000000     0.935130000000     0          
O4149    O      0.246750000000     0.468990000000     0.926660000000     0          
C4150    C      0.143750000000     0.381850000000     0.916570000000     0          
C4151    C      0.149440000000     0.403810000000     0.932010000000     0          
C4152    C      0.133400000000     0.417920000000     0.945670000000     0          
H4153    H      0.112680000000     0.413270000000     0.945850000000     0          
C4154    C      0.146160000000     0.437650000000     0.958430000000     0          
H4155    H      0.135360000000     0.450810000000     0.971130000000     0          
C4156    C      0.170700000000     0.438210000000     0.953540000000     0          
C4157    C      0.189970000000     0.455710000000     0.963300000000     0          
C4158    C      0.207160000000     0.310070000000     0.843910000000     0          
C4159    C      0.230540000000     0.313270000000     0.829450000000     0          
C4160    C      0.238800000000     0.300130000000     0.809440000000     0          
H4161    H      0.227590000000     0.283600000000     0.802230000000     0          
C4162    C      0.172950000000     0.243450000000     0.884680000000     0          
C4163    C      0.189450000000     0.221780000000     0.891010000000     0          
C4164    C      0.192960000000     0.211430000000     0.913520000000     0          
H4165    H      0.181410000000     0.217930000000     0.930110000000     0          
C4166    C      0.109530000000     0.321840000000     0.950640000000     0          
C4167    C      0.105290000000     0.327210000000     0.977270000000     0          
C4168    C      0.093100000000     0.347200000000     0.986800000000     0          
H4169    H      0.084370000000     0.361520000000     0.973770000000     0          
O4170    O      0.195310000000     0.335450000000     0.908290000000     0          
C4171    C      0.210300000000     0.320900000000     0.908100000000     0          
O4172    O      0.215000000000     0.301000000000     0.911100000000     0          
O4173    O      0.182280000000     0.371890000000     0.861070000000     0          
S4174    S      0.234340000000     0.401200000000     0.821200000000     0          
C4175    C      0.256300000000     0.396700000000     0.864200000000     0          
C4176    C      0.217300000000     0.390700000000     0.846100000000     0          
C4177    C      0.191100000000     0.377900000000     0.840300000000     0          
C4178    C      0.233800000000     0.390300000000     0.867900000000     0          
C4179    C      0.260600000000     0.405200000000     0.838500000000     0          
H4180    H      0.097740000000     0.257460000000     0.926840000000     0          
H4181    H      0.148400000000     0.289980000000     0.935130000000     0          
H4182    H      0.226070000000     0.468990000000     0.926660000000     0          
Zr4183   Zr     0.362170000000     0.787560000000     0.591290000000     0          
Zr4184   Zr     0.332790000000     0.838780000000     0.620430000000     0          
S4185    S      0.320490000000     0.914460000000     0.565760000000     0          
O4186    O      0.378800000000     0.875430000000     0.585290000000     0          
O4187    O      0.337680000000     0.871160000000     0.593370000000     0          
O4188    O      0.288070000000     0.950490000000     0.542310000000     0          
O4189    O      0.317400000000     0.974130000000     0.524340000000     0          
O4190    O      0.297850000000     0.827150000000     0.640890000000     0          
O4191    O      0.305490000000     0.790610000000     0.660420000000     0          
O4192    O      0.327080000000     0.750930000000     0.637400000000     0          
O4193    O      0.339250000000     0.752210000000     0.597160000000     0          
O4194    O      0.376840000000     0.803590000000     0.554630000000     0          
O4195    O      0.400440000000     0.837010000000     0.564420000000     0          
O4196    O      0.361680000000     0.825600000000     0.598430000000     0          
O4197    O      0.330660000000     0.797240000000     0.616600000000     0          
O4198    O      0.381580000000     0.757460000000     0.573160000000     0          
O4199    O      0.330920000000     0.789980000000     0.564870000000     0          
O4200    O      0.253250000000     0.968990000000     0.573340000000     0          
C4201    C      0.356250000000     0.881850000000     0.583430000000     0          
C4202    C      0.350560000000     0.903810000000     0.567990000000     0          
C4203    C      0.366600000000     0.917920000000     0.554330000000     0          
H4204    H      0.387320000000     0.913270000000     0.554150000000     0          
C4205    C      0.353840000000     0.937650000000     0.541570000000     0          
H4206    H      0.364640000000     0.950810000000     0.528870000000     0          
C4207    C      0.329300000000     0.938210000000     0.546460000000     0          
C4208    C      0.310030000000     0.955710000000     0.536700000000     0          
C4209    C      0.292840000000     0.810070000000     0.656090000000     0          
C4210    C      0.269460000000     0.813270000000     0.670550000000     0          
C4211    C      0.261200000000     0.800130000000     0.690560000000     0          
H4212    H      0.272410000000     0.783600000000     0.697770000000     0          
C4213    C      0.327050000000     0.743450000000     0.615320000000     0          
C4214    C      0.310550000000     0.721780000000     0.608990000000     0          
C4215    C      0.307040000000     0.711430000000     0.586480000000     0          
H4216    H      0.318590000000     0.717930000000     0.569890000000     0          
C4217    C      0.390470000000     0.821840000000     0.549360000000     0          
C4218    C      0.394710000000     0.827210000000     0.522730000000     0          
C4219    C      0.406900000000     0.847200000000     0.513200000000     0          
H4220    H      0.415630000000     0.861520000000     0.526230000000     0          
O4221    O      0.304690000000     0.835450000000     0.591710000000     0          
C4222    C      0.289700000000     0.820900000000     0.591900000000     0          
O4223    O      0.285000000000     0.801000000000     0.588900000000     0          
O4224    O      0.317720000000     0.871890000000     0.638930000000     0          
S4225    S      0.265660000000     0.901200000000     0.678800000000     0          
C4226    C      0.243700000000     0.896700000000     0.635800000000     0          
C4227    C      0.282700000000     0.890700000000     0.653900000000     0          
C4228    C      0.308900000000     0.877900000000     0.659700000000     0          
C4229    C      0.266200000000     0.890300000000     0.632100000000     0          
C4230    C      0.239400000000     0.905200000000     0.661500000000     0          
H4231    H      0.402260000000     0.757460000000     0.573160000000     0          
H4232    H      0.351600000000     0.789980000000     0.564870000000     0          
H4233    H      0.273930000000     0.968990000000     0.573340000000     0          
Zr4234   Zr     0.862170000000     0.287560000000     0.091290000000     0          
Zr4235   Zr     0.832790000000     0.338780000000     0.120430000000     0          
S4236    S      0.820490000000     0.414460000000     0.065760000000     0          
O4237    O      0.878800000000     0.375430000000     0.085290000000     0          
O4238    O      0.837680000000     0.371160000000     0.093370000000     0          
O4239    O      0.788070000000     0.450490000000     0.042310000000     0          
O4240    O      0.817400000000     0.474130000000     0.024340000000     0          
O4241    O      0.797850000000     0.327150000000     0.140890000000     0          
O4242    O      0.805490000000     0.290610000000     0.160420000000     0          
O4243    O      0.827080000000     0.250930000000     0.137400000000     0          
O4244    O      0.839250000000     0.252210000000     0.097160000000     0          
O4245    O      0.876840000000     0.303590000000     0.054630000000     0          
O4246    O      0.900440000000     0.337010000000     0.064420000000     0          
O4247    O      0.861680000000     0.325600000000     0.098430000000     0          
O4248    O      0.830660000000     0.297240000000     0.116600000000     0          
O4249    O      0.881580000000     0.257460000000     0.073160000000     0          
O4250    O      0.830920000000     0.289980000000     0.064870000000     0          
O4251    O      0.753250000000     0.468990000000     0.073340000000     0          
C4252    C      0.856250000000     0.381850000000     0.083430000000     0          
C4253    C      0.850560000000     0.403810000000     0.067990000000     0          
C4254    C      0.866600000000     0.417920000000     0.054330000000     0          
H4255    H      0.887320000000     0.413270000000     0.054150000000     0          
C4256    C      0.853840000000     0.437650000000     0.041570000000     0          
H4257    H      0.864640000000     0.450810000000     0.028870000000     0          
C4258    C      0.829300000000     0.438210000000     0.046460000000     0          
C4259    C      0.810030000000     0.455710000000     0.036700000000     0          
C4260    C      0.792840000000     0.310070000000     0.156090000000     0          
C4261    C      0.769460000000     0.313270000000     0.170550000000     0          
C4262    C      0.761200000000     0.300130000000     0.190560000000     0          
H4263    H      0.772410000000     0.283600000000     0.197770000000     0          
C4264    C      0.827050000000     0.243450000000     0.115320000000     0          
C4265    C      0.810550000000     0.221780000000     0.108990000000     0          
C4266    C      0.807040000000     0.211430000000     0.086480000000     0          
H4267    H      0.818590000000     0.217930000000     0.069890000000     0          
C4268    C      0.890470000000     0.321840000000     0.049360000000     0          
C4269    C      0.894710000000     0.327210000000     0.022730000000     0          
C4270    C      0.906900000000     0.347200000000     0.013200000000     0          
H4271    H      0.915630000000     0.361520000000     0.026230000000     0          
O4272    O      0.804690000000     0.335450000000     0.091710000000     0          
C4273    C      0.789700000000     0.320900000000     0.091900000000     0          
O4274    O      0.785000000000     0.301000000000     0.088900000000     0          
O4275    O      0.817720000000     0.371890000000     0.138930000000     0          
S4276    S      0.765660000000     0.401200000000     0.178800000000     0          
C4277    C      0.743700000000     0.396700000000     0.135800000000     0          
C4278    C      0.782700000000     0.390700000000     0.153900000000     0          
C4279    C      0.808900000000     0.377900000000     0.159700000000     0          
C4280    C      0.766200000000     0.390300000000     0.132100000000     0          
C4281    C      0.739400000000     0.405200000000     0.161500000000     0          
H4282    H      0.902260000000     0.257460000000     0.073160000000     0          
H4283    H      0.851600000000     0.289980000000     0.064870000000     0          
H4284    H      0.773930000000     0.468990000000     0.073340000000     0          
Zr4285   Zr     0.362170000000     0.212440000000     0.408710000000     0          
Zr4286   Zr     0.332790000000     0.161220000000     0.379570000000     0          
S4287    S      0.320490000000     0.085540000000     0.434240000000     0          
O4288    O      0.378800000000     0.124570000000     0.414710000000     0          
O4289    O      0.337680000000     0.128840000000     0.406630000000     0          
O4290    O      0.288070000000     0.049510000000     0.457690000000     0          
O4291    O      0.317400000000     0.025870000000     0.475660000000     0          
O4292    O      0.297850000000     0.172850000000     0.359110000000     0          
O4293    O      0.305490000000     0.209390000000     0.339580000000     0          
O4294    O      0.327080000000     0.249070000000     0.362600000000     0          
O4295    O      0.339250000000     0.247790000000     0.402840000000     0          
O4296    O      0.376840000000     0.196410000000     0.445370000000     0          
O4297    O      0.400440000000     0.162990000000     0.435580000000     0          
O4298    O      0.361680000000     0.174400000000     0.401570000000     0          
O4299    O      0.330660000000     0.202760000000     0.383400000000     0          
O4300    O      0.381580000000     0.242540000000     0.426840000000     0          
O4301    O      0.330920000000     0.210020000000     0.435130000000     0          
O4302    O      0.253250000000     0.031010000000     0.426660000000     0          
C4303    C      0.356250000000     0.118150000000     0.416570000000     0          
C4304    C      0.350560000000     0.096190000000     0.432010000000     0          
C4305    C      0.366600000000     0.082080000000     0.445670000000     0          
H4306    H      0.387320000000     0.086730000000     0.445850000000     0          
C4307    C      0.353840000000     0.062350000000     0.458430000000     0          
H4308    H      0.364640000000     0.049190000000     0.471130000000     0          
C4309    C      0.329300000000     0.061790000000     0.453540000000     0          
C4310    C      0.310030000000     0.044290000000     0.463300000000     0          
C4311    C      0.292840000000     0.189930000000     0.343910000000     0          
C4312    C      0.269460000000     0.186730000000     0.329450000000     0          
C4313    C      0.261200000000     0.199870000000     0.309440000000     0          
H4314    H      0.272410000000     0.216400000000     0.302230000000     0          
C4315    C      0.327050000000     0.256550000000     0.384680000000     0          
C4316    C      0.310550000000     0.278220000000     0.391010000000     0          
C4317    C      0.307040000000     0.288570000000     0.413520000000     0          
H4318    H      0.318590000000     0.282070000000     0.430110000000     0          
C4319    C      0.390470000000     0.178160000000     0.450640000000     0          
C4320    C      0.394710000000     0.172790000000     0.477270000000     0          
C4321    C      0.406900000000     0.152800000000     0.486800000000     0          
H4322    H      0.415630000000     0.138480000000     0.473770000000     0          
O4323    O      0.304690000000     0.164550000000     0.408290000000     0          
C4324    C      0.289700000000     0.179100000000     0.408100000000     0          
O4325    O      0.285000000000     0.199000000000     0.411100000000     0          
O4326    O      0.317720000000     0.128110000000     0.361070000000     0          
S4327    S      0.265660000000     0.098800000000     0.321200000000     0          
C4328    C      0.243700000000     0.103300000000     0.364200000000     0          
C4329    C      0.282700000000     0.109300000000     0.346100000000     0          
C4330    C      0.308900000000     0.122100000000     0.340300000000     0          
C4331    C      0.266200000000     0.109700000000     0.367900000000     0          
C4332    C      0.239400000000     0.094800000000     0.338500000000     0          
H4333    H      0.402260000000     0.242540000000     0.426840000000     0          
H4334    H      0.351600000000     0.210020000000     0.435130000000     0          
H4335    H      0.273930000000     0.031010000000     0.426660000000     0          
Zr4336   Zr     0.862170000000     0.712440000000     0.908710000000     0          
Zr4337   Zr     0.832790000000     0.661220000000     0.879570000000     0          
S4338    S      0.820490000000     0.585540000000     0.934240000000     0          
O4339    O      0.878800000000     0.624570000000     0.914710000000     0          
O4340    O      0.837680000000     0.628840000000     0.906630000000     0          
O4341    O      0.788070000000     0.549510000000     0.957690000000     0          
O4342    O      0.817400000000     0.525870000000     0.975660000000     0          
O4343    O      0.797850000000     0.672850000000     0.859110000000     0          
O4344    O      0.805490000000     0.709390000000     0.839580000000     0          
O4345    O      0.827080000000     0.749070000000     0.862600000000     0          
O4346    O      0.839250000000     0.747790000000     0.902840000000     0          
O4347    O      0.876840000000     0.696410000000     0.945370000000     0          
O4348    O      0.900440000000     0.662990000000     0.935580000000     0          
O4349    O      0.861680000000     0.674400000000     0.901570000000     0          
O4350    O      0.830660000000     0.702760000000     0.883400000000     0          
O4351    O      0.881580000000     0.742540000000     0.926840000000     0          
O4352    O      0.830920000000     0.710020000000     0.935130000000     0          
O4353    O      0.753250000000     0.531010000000     0.926660000000     0          
C4354    C      0.856250000000     0.618150000000     0.916570000000     0          
C4355    C      0.850560000000     0.596190000000     0.932010000000     0          
C4356    C      0.866600000000     0.582080000000     0.945670000000     0          
H4357    H      0.887320000000     0.586730000000     0.945850000000     0          
C4358    C      0.853840000000     0.562350000000     0.958430000000     0          
H4359    H      0.864640000000     0.549190000000     0.971130000000     0          
C4360    C      0.829300000000     0.561790000000     0.953540000000     0          
C4361    C      0.810030000000     0.544290000000     0.963300000000     0          
C4362    C      0.792840000000     0.689930000000     0.843910000000     0          
C4363    C      0.769460000000     0.686730000000     0.829450000000     0          
C4364    C      0.761200000000     0.699870000000     0.809440000000     0          
H4365    H      0.772410000000     0.716400000000     0.802230000000     0          
C4366    C      0.827050000000     0.756550000000     0.884680000000     0          
C4367    C      0.810550000000     0.778220000000     0.891010000000     0          
C4368    C      0.807040000000     0.788570000000     0.913520000000     0          
H4369    H      0.818590000000     0.782070000000     0.930110000000     0          
C4370    C      0.890470000000     0.678160000000     0.950640000000     0          
C4371    C      0.894710000000     0.672790000000     0.977270000000     0          
C4372    C      0.906900000000     0.652800000000     0.986800000000     0          
H4373    H      0.915630000000     0.638480000000     0.973770000000     0          
O4374    O      0.804690000000     0.664550000000     0.908290000000     0          
C4375    C      0.789700000000     0.679100000000     0.908100000000     0          
O4376    O      0.785000000000     0.699000000000     0.911100000000     0          
O4377    O      0.817720000000     0.628110000000     0.861070000000     0          
S4378    S      0.765660000000     0.598800000000     0.821200000000     0          
C4379    C      0.743700000000     0.603300000000     0.864200000000     0          
C4380    C      0.782700000000     0.609300000000     0.846100000000     0          
C4381    C      0.808900000000     0.622100000000     0.840300000000     0          
C4382    C      0.766200000000     0.609700000000     0.867900000000     0          
C4383    C      0.739400000000     0.594800000000     0.838500000000     0          
H4384    H      0.902260000000     0.742540000000     0.926840000000     0          
H4385    H      0.851600000000     0.710020000000     0.935130000000     0          
H4386    H      0.773930000000     0.531010000000     0.926660000000     0          
Zr4387   Zr     0.637830000000     0.212440000000     0.591290000000     0          
Zr4388   Zr     0.667210000000     0.161220000000     0.620430000000     0          
S4389    S      0.679510000000     0.085540000000     0.565760000000     0          
O4390    O      0.621200000000     0.124570000000     0.585290000000     0          
O4391    O      0.662320000000     0.128840000000     0.593370000000     0          
O4392    O      0.711930000000     0.049510000000     0.542310000000     0          
O4393    O      0.682600000000     0.025870000000     0.524340000000     0          
O4394    O      0.702150000000     0.172850000000     0.640890000000     0          
O4395    O      0.694510000000     0.209390000000     0.660420000000     0          
O4396    O      0.672920000000     0.249070000000     0.637400000000     0          
O4397    O      0.660750000000     0.247790000000     0.597160000000     0          
O4398    O      0.623160000000     0.196410000000     0.554630000000     0          
O4399    O      0.599560000000     0.162990000000     0.564420000000     0          
O4400    O      0.638320000000     0.174400000000     0.598430000000     0          
O4401    O      0.669340000000     0.202760000000     0.616600000000     0          
O4402    O      0.618420000000     0.242540000000     0.573160000000     0          
O4403    O      0.669080000000     0.210020000000     0.564870000000     0          
O4404    O      0.746750000000     0.031010000000     0.573340000000     0          
C4405    C      0.643750000000     0.118150000000     0.583430000000     0          
C4406    C      0.649440000000     0.096190000000     0.567990000000     0          
C4407    C      0.633400000000     0.082080000000     0.554330000000     0          
H4408    H      0.612680000000     0.086730000000     0.554150000000     0          
C4409    C      0.646160000000     0.062350000000     0.541570000000     0          
H4410    H      0.635360000000     0.049190000000     0.528870000000     0          
C4411    C      0.670700000000     0.061790000000     0.546460000000     0          
C4412    C      0.689970000000     0.044290000000     0.536700000000     0          
C4413    C      0.707160000000     0.189930000000     0.656090000000     0          
C4414    C      0.730540000000     0.186730000000     0.670550000000     0          
C4415    C      0.738800000000     0.199870000000     0.690560000000     0          
H4416    H      0.727590000000     0.216400000000     0.697770000000     0          
C4417    C      0.672950000000     0.256550000000     0.615320000000     0          
C4418    C      0.689450000000     0.278220000000     0.608990000000     0          
C4419    C      0.692960000000     0.288570000000     0.586480000000     0          
H4420    H      0.681410000000     0.282070000000     0.569890000000     0          
C4421    C      0.609530000000     0.178160000000     0.549360000000     0          
C4422    C      0.605290000000     0.172790000000     0.522730000000     0          
C4423    C      0.593100000000     0.152800000000     0.513200000000     0          
H4424    H      0.584370000000     0.138480000000     0.526230000000     0          
O4425    O      0.695310000000     0.164550000000     0.591710000000     0          
C4426    C      0.710300000000     0.179100000000     0.591900000000     0          
O4427    O      0.715000000000     0.199000000000     0.588900000000     0          
O4428    O      0.682280000000     0.128110000000     0.638930000000     0          
S4429    S      0.734340000000     0.098800000000     0.678800000000     0          
C4430    C      0.756300000000     0.103300000000     0.635800000000     0          
C4431    C      0.717300000000     0.109300000000     0.653900000000     0          
C4432    C      0.691100000000     0.122100000000     0.659700000000     0          
C4433    C      0.733800000000     0.109700000000     0.632100000000     0          
C4434    C      0.760600000000     0.094800000000     0.661500000000     0          
H4435    H      0.597740000000     0.242540000000     0.573160000000     0          
H4436    H      0.648400000000     0.210020000000     0.564870000000     0          
H4437    H      0.726070000000     0.031010000000     0.573340000000     0          
Zr4438   Zr     0.137830000000     0.712440000000     0.091290000000     0          
Zr4439   Zr     0.167210000000     0.661220000000     0.120430000000     0          
S4440    S      0.179510000000     0.585540000000     0.065760000000     0          
O4441    O      0.121200000000     0.624570000000     0.085290000000     0          
O4442    O      0.162320000000     0.628840000000     0.093370000000     0          
O4443    O      0.211930000000     0.549510000000     0.042310000000     0          
O4444    O      0.182600000000     0.525870000000     0.024340000000     0          
O4445    O      0.202150000000     0.672850000000     0.140890000000     0          
O4446    O      0.194510000000     0.709390000000     0.160420000000     0          
O4447    O      0.172920000000     0.749070000000     0.137400000000     0          
O4448    O      0.160750000000     0.747790000000     0.097160000000     0          
O4449    O      0.123160000000     0.696410000000     0.054630000000     0          
O4450    O      0.099560000000     0.662990000000     0.064420000000     0          
O4451    O      0.138320000000     0.674400000000     0.098430000000     0          
O4452    O      0.169340000000     0.702760000000     0.116600000000     0          
O4453    O      0.118420000000     0.742540000000     0.073160000000     0          
O4454    O      0.169080000000     0.710020000000     0.064870000000     0          
O4455    O      0.246750000000     0.531010000000     0.073340000000     0          
C4456    C      0.143750000000     0.618150000000     0.083430000000     0          
C4457    C      0.149440000000     0.596190000000     0.067990000000     0          
C4458    C      0.133400000000     0.582080000000     0.054330000000     0          
H4459    H      0.112680000000     0.586730000000     0.054150000000     0          
C4460    C      0.146160000000     0.562350000000     0.041570000000     0          
H4461    H      0.135360000000     0.549190000000     0.028870000000     0          
C4462    C      0.170700000000     0.561790000000     0.046460000000     0          
C4463    C      0.189970000000     0.544290000000     0.036700000000     0          
C4464    C      0.207160000000     0.689930000000     0.156090000000     0          
C4465    C      0.230540000000     0.686730000000     0.170550000000     0          
C4466    C      0.238800000000     0.699870000000     0.190560000000     0          
H4467    H      0.227590000000     0.716400000000     0.197770000000     0          
C4468    C      0.172950000000     0.756550000000     0.115320000000     0          
C4469    C      0.189450000000     0.778220000000     0.108990000000     0          
C4470    C      0.192960000000     0.788570000000     0.086480000000     0          
H4471    H      0.181410000000     0.782070000000     0.069890000000     0          
C4472    C      0.109530000000     0.678160000000     0.049360000000     0          
C4473    C      0.105290000000     0.672790000000     0.022730000000     0          
C4474    C      0.093100000000     0.652800000000     0.013200000000     0          
H4475    H      0.084370000000     0.638480000000     0.026230000000     0          
O4476    O      0.195310000000     0.664550000000     0.091710000000     0          
C4477    C      0.210300000000     0.679100000000     0.091900000000     0          
O4478    O      0.215000000000     0.699000000000     0.088900000000     0          
O4479    O      0.182280000000     0.628110000000     0.138930000000     0          
S4480    S      0.234340000000     0.598800000000     0.178800000000     0          
C4481    C      0.256300000000     0.603300000000     0.135800000000     0          
C4482    C      0.217300000000     0.609300000000     0.153900000000     0          
C4483    C      0.191100000000     0.622100000000     0.159700000000     0          
C4484    C      0.233800000000     0.609700000000     0.132100000000     0          
C4485    C      0.260600000000     0.594800000000     0.161500000000     0          
H4486    H      0.097740000000     0.742540000000     0.073160000000     0          
H4487    H      0.148400000000     0.710020000000     0.064870000000     0          
H4488    H      0.226070000000     0.531010000000     0.073340000000     0          
Zr4489   Zr     0.787560000000     0.591290000000     0.362170000000     0          
Zr4490   Zr     0.838780000000     0.620430000000     0.332790000000     0          
S4491    S      0.914460000000     0.565760000000     0.320490000000     0          
O4492    O      0.875430000000     0.585290000000     0.378800000000     0          
O4493    O      0.871160000000     0.593370000000     0.337680000000     0          
O4494    O      0.950490000000     0.542310000000     0.288070000000     0          
O4495    O      0.974130000000     0.524340000000     0.317400000000     0          
O4496    O      0.827150000000     0.640890000000     0.297850000000     0          
O4497    O      0.790610000000     0.660420000000     0.305490000000     0          
O4498    O      0.750930000000     0.637400000000     0.327080000000     0          
O4499    O      0.752210000000     0.597160000000     0.339250000000     0          
O4500    O      0.803590000000     0.554630000000     0.376840000000     0          
O4501    O      0.837010000000     0.564420000000     0.400440000000     0          
O4502    O      0.825600000000     0.598430000000     0.361680000000     0          
O4503    O      0.797240000000     0.616600000000     0.330660000000     0          
O4504    O      0.757460000000     0.573160000000     0.381580000000     0          
O4505    O      0.789980000000     0.564870000000     0.330920000000     0          
O4506    O      0.968990000000     0.573340000000     0.253250000000     0          
C4507    C      0.881850000000     0.583430000000     0.356250000000     0          
C4508    C      0.903810000000     0.567990000000     0.350560000000     0          
C4509    C      0.917920000000     0.554330000000     0.366600000000     0          
H4510    H      0.913270000000     0.554150000000     0.387320000000     0          
C4511    C      0.937650000000     0.541570000000     0.353840000000     0          
H4512    H      0.950810000000     0.528870000000     0.364640000000     0          
C4513    C      0.938210000000     0.546460000000     0.329300000000     0          
C4514    C      0.955710000000     0.536700000000     0.310030000000     0          
C4515    C      0.810070000000     0.656090000000     0.292840000000     0          
C4516    C      0.813270000000     0.670550000000     0.269460000000     0          
C4517    C      0.800130000000     0.690560000000     0.261200000000     0          
H4518    H      0.783600000000     0.697770000000     0.272410000000     0          
C4519    C      0.743450000000     0.615320000000     0.327050000000     0          
C4520    C      0.721780000000     0.608990000000     0.310550000000     0          
C4521    C      0.711430000000     0.586480000000     0.307040000000     0          
H4522    H      0.717930000000     0.569890000000     0.318590000000     0          
C4523    C      0.821840000000     0.549360000000     0.390470000000     0          
C4524    C      0.827210000000     0.522730000000     0.394710000000     0          
C4525    C      0.847200000000     0.513200000000     0.406900000000     0          
H4526    H      0.861520000000     0.526230000000     0.415630000000     0          
O4527    O      0.835450000000     0.591710000000     0.304690000000     0          
C4528    C      0.820900000000     0.591900000000     0.289700000000     0          
O4529    O      0.801000000000     0.588900000000     0.285000000000     0          
O4530    O      0.871890000000     0.638930000000     0.317720000000     0          
S4531    S      0.901200000000     0.678800000000     0.265660000000     0          
C4532    C      0.896700000000     0.635800000000     0.243700000000     0          
C4533    C      0.890700000000     0.653900000000     0.282700000000     0          
C4534    C      0.877900000000     0.659700000000     0.308900000000     0          
C4535    C      0.890300000000     0.632100000000     0.266200000000     0          
C4536    C      0.905200000000     0.661500000000     0.239400000000     0          
H4537    H      0.757460000000     0.573160000000     0.402260000000     0          
H4538    H      0.789980000000     0.564870000000     0.351600000000     0          
H4539    H      0.968990000000     0.573340000000     0.273930000000     0          
Zr4540   Zr     0.287560000000     0.091290000000     0.862170000000     0          
Zr4541   Zr     0.338780000000     0.120430000000     0.832790000000     0          
S4542    S      0.414460000000     0.065760000000     0.820490000000     0          
O4543    O      0.375430000000     0.085290000000     0.878800000000     0          
O4544    O      0.371160000000     0.093370000000     0.837680000000     0          
O4545    O      0.450490000000     0.042310000000     0.788070000000     0          
O4546    O      0.474130000000     0.024340000000     0.817400000000     0          
O4547    O      0.327150000000     0.140890000000     0.797850000000     0          
O4548    O      0.290610000000     0.160420000000     0.805490000000     0          
O4549    O      0.250930000000     0.137400000000     0.827080000000     0          
O4550    O      0.252210000000     0.097160000000     0.839250000000     0          
O4551    O      0.303590000000     0.054630000000     0.876840000000     0          
O4552    O      0.337010000000     0.064420000000     0.900440000000     0          
O4553    O      0.325600000000     0.098430000000     0.861680000000     0          
O4554    O      0.297240000000     0.116600000000     0.830660000000     0          
O4555    O      0.257460000000     0.073160000000     0.881580000000     0          
O4556    O      0.289980000000     0.064870000000     0.830920000000     0          
O4557    O      0.468990000000     0.073340000000     0.753250000000     0          
C4558    C      0.381850000000     0.083430000000     0.856250000000     0          
C4559    C      0.403810000000     0.067990000000     0.850560000000     0          
C4560    C      0.417920000000     0.054330000000     0.866600000000     0          
H4561    H      0.413270000000     0.054150000000     0.887320000000     0          
C4562    C      0.437650000000     0.041570000000     0.853840000000     0          
H4563    H      0.450810000000     0.028870000000     0.864640000000     0          
C4564    C      0.438210000000     0.046460000000     0.829300000000     0          
C4565    C      0.455710000000     0.036700000000     0.810030000000     0          
C4566    C      0.310070000000     0.156090000000     0.792840000000     0          
C4567    C      0.313270000000     0.170550000000     0.769460000000     0          
C4568    C      0.300130000000     0.190560000000     0.761200000000     0          
H4569    H      0.283600000000     0.197770000000     0.772410000000     0          
C4570    C      0.243450000000     0.115320000000     0.827050000000     0          
C4571    C      0.221780000000     0.108990000000     0.810550000000     0          
C4572    C      0.211430000000     0.086480000000     0.807040000000     0          
H4573    H      0.217930000000     0.069890000000     0.818590000000     0          
C4574    C      0.321840000000     0.049360000000     0.890470000000     0          
C4575    C      0.327210000000     0.022730000000     0.894710000000     0          
C4576    C      0.347200000000     0.013200000000     0.906900000000     0          
H4577    H      0.361520000000     0.026230000000     0.915630000000     0          
O4578    O      0.335450000000     0.091710000000     0.804690000000     0          
C4579    C      0.320900000000     0.091900000000     0.789700000000     0          
O4580    O      0.301000000000     0.088900000000     0.785000000000     0          
O4581    O      0.371890000000     0.138930000000     0.817720000000     0          
S4582    S      0.401200000000     0.178800000000     0.765660000000     0          
C4583    C      0.396700000000     0.135800000000     0.743700000000     0          
C4584    C      0.390700000000     0.153900000000     0.782700000000     0          
C4585    C      0.377900000000     0.159700000000     0.808900000000     0          
C4586    C      0.390300000000     0.132100000000     0.766200000000     0          
C4587    C      0.405200000000     0.161500000000     0.739400000000     0          
H4588    H      0.257460000000     0.073160000000     0.902260000000     0          
H4589    H      0.289980000000     0.064870000000     0.851600000000     0          
H4590    H      0.468990000000     0.073340000000     0.773930000000     0          
Zr4591   Zr     0.787560000000     0.408710000000     0.637830000000     0          
Zr4592   Zr     0.838780000000     0.379570000000     0.667210000000     0          
S4593    S      0.914460000000     0.434240000000     0.679510000000     0          
O4594    O      0.875430000000     0.414710000000     0.621200000000     0          
O4595    O      0.871160000000     0.406630000000     0.662320000000     0          
O4596    O      0.950490000000     0.457690000000     0.711930000000     0          
O4597    O      0.974130000000     0.475660000000     0.682600000000     0          
O4598    O      0.827150000000     0.359110000000     0.702150000000     0          
O4599    O      0.790610000000     0.339580000000     0.694510000000     0          
O4600    O      0.750930000000     0.362600000000     0.672920000000     0          
O4601    O      0.752210000000     0.402840000000     0.660750000000     0          
O4602    O      0.803590000000     0.445370000000     0.623160000000     0          
O4603    O      0.837010000000     0.435580000000     0.599560000000     0          
O4604    O      0.825600000000     0.401570000000     0.638320000000     0          
O4605    O      0.797240000000     0.383400000000     0.669340000000     0          
O4606    O      0.757460000000     0.426840000000     0.618420000000     0          
O4607    O      0.789980000000     0.435130000000     0.669080000000     0          
O4608    O      0.968990000000     0.426660000000     0.746750000000     0          
C4609    C      0.881850000000     0.416570000000     0.643750000000     0          
C4610    C      0.903810000000     0.432010000000     0.649440000000     0          
C4611    C      0.917920000000     0.445670000000     0.633400000000     0          
H4612    H      0.913270000000     0.445850000000     0.612680000000     0          
C4613    C      0.937650000000     0.458430000000     0.646160000000     0          
H4614    H      0.950810000000     0.471130000000     0.635360000000     0          
C4615    C      0.938210000000     0.453540000000     0.670700000000     0          
C4616    C      0.955710000000     0.463300000000     0.689970000000     0          
C4617    C      0.810070000000     0.343910000000     0.707160000000     0          
C4618    C      0.813270000000     0.329450000000     0.730540000000     0          
C4619    C      0.800130000000     0.309440000000     0.738800000000     0          
H4620    H      0.783600000000     0.302230000000     0.727590000000     0          
C4621    C      0.743450000000     0.384680000000     0.672950000000     0          
C4622    C      0.721780000000     0.391010000000     0.689450000000     0          
C4623    C      0.711430000000     0.413520000000     0.692960000000     0          
H4624    H      0.717930000000     0.430110000000     0.681410000000     0          
C4625    C      0.821840000000     0.450640000000     0.609530000000     0          
C4626    C      0.827210000000     0.477270000000     0.605290000000     0          
C4627    C      0.847200000000     0.486800000000     0.593100000000     0          
H4628    H      0.861520000000     0.473770000000     0.584370000000     0          
O4629    O      0.835450000000     0.408290000000     0.695310000000     0          
C4630    C      0.820900000000     0.408100000000     0.710300000000     0          
O4631    O      0.801000000000     0.411100000000     0.715000000000     0          
O4632    O      0.871890000000     0.361070000000     0.682280000000     0          
S4633    S      0.901200000000     0.321200000000     0.734340000000     0          
C4634    C      0.896700000000     0.364200000000     0.756300000000     0          
C4635    C      0.890700000000     0.346100000000     0.717300000000     0          
C4636    C      0.877900000000     0.340300000000     0.691100000000     0          
C4637    C      0.890300000000     0.367900000000     0.733800000000     0          
C4638    C      0.905200000000     0.338500000000     0.760600000000     0          
H4639    H      0.757460000000     0.426840000000     0.597740000000     0          
H4640    H      0.789980000000     0.435130000000     0.648400000000     0          
H4641    H      0.968990000000     0.426660000000     0.726070000000     0          
Zr4642   Zr     0.287560000000     0.908710000000     0.137830000000     0          
Zr4643   Zr     0.338780000000     0.879570000000     0.167210000000     0          
S4644    S      0.414460000000     0.934240000000     0.179510000000     0          
O4645    O      0.375430000000     0.914710000000     0.121200000000     0          
O4646    O      0.371160000000     0.906630000000     0.162320000000     0          
O4647    O      0.450490000000     0.957690000000     0.211930000000     0          
O4648    O      0.474130000000     0.975660000000     0.182600000000     0          
O4649    O      0.327150000000     0.859110000000     0.202150000000     0          
O4650    O      0.290610000000     0.839580000000     0.194510000000     0          
O4651    O      0.250930000000     0.862600000000     0.172920000000     0          
O4652    O      0.252210000000     0.902840000000     0.160750000000     0          
O4653    O      0.303590000000     0.945370000000     0.123160000000     0          
O4654    O      0.337010000000     0.935580000000     0.099560000000     0          
O4655    O      0.325600000000     0.901570000000     0.138320000000     0          
O4656    O      0.297240000000     0.883400000000     0.169340000000     0          
O4657    O      0.257460000000     0.926840000000     0.118420000000     0          
O4658    O      0.289980000000     0.935130000000     0.169080000000     0          
O4659    O      0.468990000000     0.926660000000     0.246750000000     0          
C4660    C      0.381850000000     0.916570000000     0.143750000000     0          
C4661    C      0.403810000000     0.932010000000     0.149440000000     0          
C4662    C      0.417920000000     0.945670000000     0.133400000000     0          
H4663    H      0.413270000000     0.945850000000     0.112680000000     0          
C4664    C      0.437650000000     0.958430000000     0.146160000000     0          
H4665    H      0.450810000000     0.971130000000     0.135360000000     0          
C4666    C      0.438210000000     0.953540000000     0.170700000000     0          
C4667    C      0.455710000000     0.963300000000     0.189970000000     0          
C4668    C      0.310070000000     0.843910000000     0.207160000000     0          
C4669    C      0.313270000000     0.829450000000     0.230540000000     0          
C4670    C      0.300130000000     0.809440000000     0.238800000000     0          
H4671    H      0.283600000000     0.802230000000     0.227590000000     0          
C4672    C      0.243450000000     0.884680000000     0.172950000000     0          
C4673    C      0.221780000000     0.891010000000     0.189450000000     0          
C4674    C      0.211430000000     0.913520000000     0.192960000000     0          
H4675    H      0.217930000000     0.930110000000     0.181410000000     0          
C4676    C      0.321840000000     0.950640000000     0.109530000000     0          
C4677    C      0.327210000000     0.977270000000     0.105290000000     0          
C4678    C      0.347200000000     0.986800000000     0.093100000000     0          
H4679    H      0.361520000000     0.973770000000     0.084370000000     0          
O4680    O      0.335450000000     0.908290000000     0.195310000000     0          
C4681    C      0.320900000000     0.908100000000     0.210300000000     0          
O4682    O      0.301000000000     0.911100000000     0.215000000000     0          
O4683    O      0.371890000000     0.861070000000     0.182280000000     0          
S4684    S      0.401200000000     0.821200000000     0.234340000000     0          
C4685    C      0.396700000000     0.864200000000     0.256300000000     0          
C4686    C      0.390700000000     0.846100000000     0.217300000000     0          
C4687    C      0.377900000000     0.840300000000     0.191100000000     0          
C4688    C      0.390300000000     0.867900000000     0.233800000000     0          
C4689    C      0.405200000000     0.838500000000     0.260600000000     0          
H4690    H      0.257460000000     0.926840000000     0.097740000000     0          
H4691    H      0.289980000000     0.935130000000     0.148400000000     0          
H4692    H      0.468990000000     0.926660000000     0.226070000000     0          
Zr4693   Zr     0.212440000000     0.591290000000     0.637830000000     0          
Zr4694   Zr     0.161220000000     0.620430000000     0.667210000000     0          
S4695    S      0.085540000000     0.565760000000     0.679510000000     0          
O4696    O      0.124570000000     0.585290000000     0.621200000000     0          
O4697    O      0.128840000000     0.593370000000     0.662320000000     0          
O4698    O      0.049510000000     0.542310000000     0.711930000000     0          
O4699    O      0.025870000000     0.524340000000     0.682600000000     0          
O4700    O      0.172850000000     0.640890000000     0.702150000000     0          
O4701    O      0.209390000000     0.660420000000     0.694510000000     0          
O4702    O      0.249070000000     0.637400000000     0.672920000000     0          
O4703    O      0.247790000000     0.597160000000     0.660750000000     0          
O4704    O      0.196410000000     0.554630000000     0.623160000000     0          
O4705    O      0.162990000000     0.564420000000     0.599560000000     0          
O4706    O      0.174400000000     0.598430000000     0.638320000000     0          
O4707    O      0.202760000000     0.616600000000     0.669340000000     0          
O4708    O      0.242540000000     0.573160000000     0.618420000000     0          
O4709    O      0.210020000000     0.564870000000     0.669080000000     0          
O4710    O      0.031010000000     0.573340000000     0.746750000000     0          
C4711    C      0.118150000000     0.583430000000     0.643750000000     0          
C4712    C      0.096190000000     0.567990000000     0.649440000000     0          
C4713    C      0.082080000000     0.554330000000     0.633400000000     0          
H4714    H      0.086730000000     0.554150000000     0.612680000000     0          
C4715    C      0.062350000000     0.541570000000     0.646160000000     0          
H4716    H      0.049190000000     0.528870000000     0.635360000000     0          
C4717    C      0.061790000000     0.546460000000     0.670700000000     0          
C4718    C      0.044290000000     0.536700000000     0.689970000000     0          
C4719    C      0.189930000000     0.656090000000     0.707160000000     0          
C4720    C      0.186730000000     0.670550000000     0.730540000000     0          
C4721    C      0.199870000000     0.690560000000     0.738800000000     0          
H4722    H      0.216400000000     0.697770000000     0.727590000000     0          
C4723    C      0.256550000000     0.615320000000     0.672950000000     0          
C4724    C      0.278220000000     0.608990000000     0.689450000000     0          
C4725    C      0.288570000000     0.586480000000     0.692960000000     0          
H4726    H      0.282070000000     0.569890000000     0.681410000000     0          
C4727    C      0.178160000000     0.549360000000     0.609530000000     0          
C4728    C      0.172790000000     0.522730000000     0.605290000000     0          
C4729    C      0.152800000000     0.513200000000     0.593100000000     0          
H4730    H      0.138480000000     0.526230000000     0.584370000000     0          
O4731    O      0.164550000000     0.591710000000     0.695310000000     0          
C4732    C      0.179100000000     0.591900000000     0.710300000000     0          
O4733    O      0.199000000000     0.588900000000     0.715000000000     0          
O4734    O      0.128110000000     0.638930000000     0.682280000000     0          
S4735    S      0.098800000000     0.678800000000     0.734340000000     0          
C4736    C      0.103300000000     0.635800000000     0.756300000000     0          
C4737    C      0.109300000000     0.653900000000     0.717300000000     0          
C4738    C      0.122100000000     0.659700000000     0.691100000000     0          
C4739    C      0.109700000000     0.632100000000     0.733800000000     0          
C4740    C      0.094800000000     0.661500000000     0.760600000000     0          
H4741    H      0.242540000000     0.573160000000     0.597740000000     0          
H4742    H      0.210020000000     0.564870000000     0.648400000000     0          
H4743    H      0.031010000000     0.573340000000     0.726070000000     0          
Zr4744   Zr     0.712440000000     0.091290000000     0.137830000000     0          
Zr4745   Zr     0.661220000000     0.120430000000     0.167210000000     0          
S4746    S      0.585540000000     0.065760000000     0.179510000000     0          
O4747    O      0.624570000000     0.085290000000     0.121200000000     0          
O4748    O      0.628840000000     0.093370000000     0.162320000000     0          
O4749    O      0.549510000000     0.042310000000     0.211930000000     0          
O4750    O      0.525870000000     0.024340000000     0.182600000000     0          
O4751    O      0.672850000000     0.140890000000     0.202150000000     0          
O4752    O      0.709390000000     0.160420000000     0.194510000000     0          
O4753    O      0.749070000000     0.137400000000     0.172920000000     0          
O4754    O      0.747790000000     0.097160000000     0.160750000000     0          
O4755    O      0.696410000000     0.054630000000     0.123160000000     0          
O4756    O      0.662990000000     0.064420000000     0.099560000000     0          
O4757    O      0.674400000000     0.098430000000     0.138320000000     0          
O4758    O      0.702760000000     0.116600000000     0.169340000000     0          
O4759    O      0.742540000000     0.073160000000     0.118420000000     0          
O4760    O      0.710020000000     0.064870000000     0.169080000000     0          
O4761    O      0.531010000000     0.073340000000     0.246750000000     0          
C4762    C      0.618150000000     0.083430000000     0.143750000000     0          
C4763    C      0.596190000000     0.067990000000     0.149440000000     0          
C4764    C      0.582080000000     0.054330000000     0.133400000000     0          
H4765    H      0.586730000000     0.054150000000     0.112680000000     0          
C4766    C      0.562350000000     0.041570000000     0.146160000000     0          
H4767    H      0.549190000000     0.028870000000     0.135360000000     0          
C4768    C      0.561790000000     0.046460000000     0.170700000000     0          
C4769    C      0.544290000000     0.036700000000     0.189970000000     0          
C4770    C      0.689930000000     0.156090000000     0.207160000000     0          
C4771    C      0.686730000000     0.170550000000     0.230540000000     0          
C4772    C      0.699870000000     0.190560000000     0.238800000000     0          
H4773    H      0.716400000000     0.197770000000     0.227590000000     0          
C4774    C      0.756550000000     0.115320000000     0.172950000000     0          
C4775    C      0.778220000000     0.108990000000     0.189450000000     0          
C4776    C      0.788570000000     0.086480000000     0.192960000000     0          
H4777    H      0.782070000000     0.069890000000     0.181410000000     0          
C4778    C      0.678160000000     0.049360000000     0.109530000000     0          
C4779    C      0.672790000000     0.022730000000     0.105290000000     0          
C4780    C      0.652800000000     0.013200000000     0.093100000000     0          
H4781    H      0.638480000000     0.026230000000     0.084370000000     0          
O4782    O      0.664550000000     0.091710000000     0.195310000000     0          
C4783    C      0.679100000000     0.091900000000     0.210300000000     0          
O4784    O      0.699000000000     0.088900000000     0.215000000000     0          
O4785    O      0.628110000000     0.138930000000     0.182280000000     0          
S4786    S      0.598800000000     0.178800000000     0.234340000000     0          
C4787    C      0.603300000000     0.135800000000     0.256300000000     0          
C4788    C      0.609300000000     0.153900000000     0.217300000000     0          
C4789    C      0.622100000000     0.159700000000     0.191100000000     0          
C4790    C      0.609700000000     0.132100000000     0.233800000000     0          
C4791    C      0.594800000000     0.161500000000     0.260600000000     0          
H4792    H      0.742540000000     0.073160000000     0.097740000000     0          
H4793    H      0.710020000000     0.064870000000     0.148400000000     0          
H4794    H      0.531010000000     0.073340000000     0.226070000000     0          
Zr4795   Zr     0.212440000000     0.408710000000     0.362170000000     0          
Zr4796   Zr     0.161220000000     0.379570000000     0.332790000000     0          
S4797    S      0.085540000000     0.434240000000     0.320490000000     0          
O4798    O      0.124570000000     0.414710000000     0.378800000000     0          
O4799    O      0.128840000000     0.406630000000     0.337680000000     0          
O4800    O      0.049510000000     0.457690000000     0.288070000000     0          
O4801    O      0.025870000000     0.475660000000     0.317400000000     0          
O4802    O      0.172850000000     0.359110000000     0.297850000000     0          
O4803    O      0.209390000000     0.339580000000     0.305490000000     0          
O4804    O      0.249070000000     0.362600000000     0.327080000000     0          
O4805    O      0.247790000000     0.402840000000     0.339250000000     0          
O4806    O      0.196410000000     0.445370000000     0.376840000000     0          
O4807    O      0.162990000000     0.435580000000     0.400440000000     0          
O4808    O      0.174400000000     0.401570000000     0.361680000000     0          
O4809    O      0.202760000000     0.383400000000     0.330660000000     0          
O4810    O      0.242540000000     0.426840000000     0.381580000000     0          
O4811    O      0.210020000000     0.435130000000     0.330920000000     0          
O4812    O      0.031010000000     0.426660000000     0.253250000000     0          
C4813    C      0.118150000000     0.416570000000     0.356250000000     0          
C4814    C      0.096190000000     0.432010000000     0.350560000000     0          
C4815    C      0.082080000000     0.445670000000     0.366600000000     0          
H4816    H      0.086730000000     0.445850000000     0.387320000000     0          
C4817    C      0.062350000000     0.458430000000     0.353840000000     0          
H4818    H      0.049190000000     0.471130000000     0.364640000000     0          
C4819    C      0.061790000000     0.453540000000     0.329300000000     0          
C4820    C      0.044290000000     0.463300000000     0.310030000000     0          
C4821    C      0.189930000000     0.343910000000     0.292840000000     0          
C4822    C      0.186730000000     0.329450000000     0.269460000000     0          
C4823    C      0.199870000000     0.309440000000     0.261200000000     0          
H4824    H      0.216400000000     0.302230000000     0.272410000000     0          
C4825    C      0.256550000000     0.384680000000     0.327050000000     0          
C4826    C      0.278220000000     0.391010000000     0.310550000000     0          
C4827    C      0.288570000000     0.413520000000     0.307040000000     0          
H4828    H      0.282070000000     0.430110000000     0.318590000000     0          
C4829    C      0.178160000000     0.450640000000     0.390470000000     0          
C4830    C      0.172790000000     0.477270000000     0.394710000000     0          
C4831    C      0.152800000000     0.486800000000     0.406900000000     0          
H4832    H      0.138480000000     0.473770000000     0.415630000000     0          
O4833    O      0.164550000000     0.408290000000     0.304690000000     0          
C4834    C      0.179100000000     0.408100000000     0.289700000000     0          
O4835    O      0.199000000000     0.411100000000     0.285000000000     0          
O4836    O      0.128110000000     0.361070000000     0.317720000000     0          
S4837    S      0.098800000000     0.321200000000     0.265660000000     0          
C4838    C      0.103300000000     0.364200000000     0.243700000000     0          
C4839    C      0.109300000000     0.346100000000     0.282700000000     0          
C4840    C      0.122100000000     0.340300000000     0.308900000000     0          
C4841    C      0.109700000000     0.367900000000     0.266200000000     0          
C4842    C      0.094800000000     0.338500000000     0.239400000000     0          
H4843    H      0.242540000000     0.426840000000     0.402260000000     0          
H4844    H      0.210020000000     0.435130000000     0.351600000000     0          
H4845    H      0.031010000000     0.426660000000     0.273930000000     0          
Zr4846   Zr     0.712440000000     0.908710000000     0.862170000000     0          
Zr4847   Zr     0.661220000000     0.879570000000     0.832790000000     0          
S4848    S      0.585540000000     0.934240000000     0.820490000000     0          
O4849    O      0.624570000000     0.914710000000     0.878800000000     0          
O4850    O      0.628840000000     0.906630000000     0.837680000000     0          
O4851    O      0.549510000000     0.957690000000     0.788070000000     0          
O4852    O      0.525870000000     0.975660000000     0.817400000000     0          
O4853    O      0.672850000000     0.859110000000     0.797850000000     0          
O4854    O      0.709390000000     0.839580000000     0.805490000000     0          
O4855    O      0.749070000000     0.862600000000     0.827080000000     0          
O4856    O      0.747790000000     0.902840000000     0.839250000000     0          
O4857    O      0.696410000000     0.945370000000     0.876840000000     0          
O4858    O      0.662990000000     0.935580000000     0.900440000000     0          
O4859    O      0.674400000000     0.901570000000     0.861680000000     0          
O4860    O      0.702760000000     0.883400000000     0.830660000000     0          
O4861    O      0.742540000000     0.926840000000     0.881580000000     0          
O4862    O      0.710020000000     0.935130000000     0.830920000000     0          
O4863    O      0.531010000000     0.926660000000     0.753250000000     0          
C4864    C      0.618150000000     0.916570000000     0.856250000000     0          
C4865    C      0.596190000000     0.932010000000     0.850560000000     0          
C4866    C      0.582080000000     0.945670000000     0.866600000000     0          
H4867    H      0.586730000000     0.945850000000     0.887320000000     0          
C4868    C      0.562350000000     0.958430000000     0.853840000000     0          
H4869    H      0.549190000000     0.971130000000     0.864640000000     0          
C4870    C      0.561790000000     0.953540000000     0.829300000000     0          
C4871    C      0.544290000000     0.963300000000     0.810030000000     0          
C4872    C      0.689930000000     0.843910000000     0.792840000000     0          
C4873    C      0.686730000000     0.829450000000     0.769460000000     0          
C4874    C      0.699870000000     0.809440000000     0.761200000000     0          
H4875    H      0.716400000000     0.802230000000     0.772410000000     0          
C4876    C      0.756550000000     0.884680000000     0.827050000000     0          
C4877    C      0.778220000000     0.891010000000     0.810550000000     0          
C4878    C      0.788570000000     0.913520000000     0.807040000000     0          
H4879    H      0.782070000000     0.930110000000     0.818590000000     0          
C4880    C      0.678160000000     0.950640000000     0.890470000000     0          
C4881    C      0.672790000000     0.977270000000     0.894710000000     0          
C4882    C      0.652800000000     0.986800000000     0.906900000000     0          
H4883    H      0.638480000000     0.973770000000     0.915630000000     0          
O4884    O      0.664550000000     0.908290000000     0.804690000000     0          
C4885    C      0.679100000000     0.908100000000     0.789700000000     0          
O4886    O      0.699000000000     0.911100000000     0.785000000000     0          
O4887    O      0.628110000000     0.861070000000     0.817720000000     0          
S4888    S      0.598800000000     0.821200000000     0.765660000000     0          
C4889    C      0.603300000000     0.864200000000     0.743700000000     0          
C4890    C      0.609300000000     0.846100000000     0.782700000000     0          
C4891    C      0.622100000000     0.840300000000     0.808900000000     0          
C4892    C      0.609700000000     0.867900000000     0.766200000000     0          
C4893    C      0.594800000000     0.838500000000     0.739400000000     0          
H4894    H      0.742540000000     0.926840000000     0.902260000000     0          
H4895    H      0.710020000000     0.935130000000     0.851600000000     0          
H4896    H      0.531010000000     0.926660000000     0.773930000000     0          
Zr4897   Zr     0.345680000000     0.345680000000     0.216070000000     0          
Zr4898   Zr     0.395670000000     0.395670000000     0.157420000000     0          
O4899    O      0.372450000000     0.372450000000     0.221740000000     0          
O4900    O      0.401270000000     0.401270000000     0.200610000000     0          
O4901    O      0.347430000000     0.347430000000     0.177240000000     0          
O4902    O      0.368070000000     0.368070000000     0.141630000000     0          
O4903    O      0.317800000000     0.317800000000     0.118000000000     0          
Zr4904   Zr     0.845680000000     0.845680000000     0.716070000000     0          
Zr4905   Zr     0.895670000000     0.895670000000     0.657420000000     0          
O4906    O      0.872450000000     0.872450000000     0.721740000000     0          
O4907    O      0.901270000000     0.901270000000     0.700610000000     0          
O4908    O      0.847430000000     0.847430000000     0.677240000000     0          
O4909    O      0.868070000000     0.868070000000     0.641630000000     0          
O4910    O      0.817800000000     0.817800000000     0.618000000000     0          
Zr4911   Zr     0.654320000000     0.654320000000     0.216070000000     0          
Zr4912   Zr     0.604330000000     0.604330000000     0.157420000000     0          
O4913    O      0.627550000000     0.627550000000     0.221740000000     0          
O4914    O      0.598730000000     0.598730000000     0.200610000000     0          
O4915    O      0.652570000000     0.652570000000     0.177240000000     0          
O4916    O      0.631930000000     0.631930000000     0.141630000000     0          
O4917    O      0.682200000000     0.682200000000     0.118000000000     0          
Zr4918   Zr     0.154320000000     0.154320000000     0.716070000000     0          
Zr4919   Zr     0.104330000000     0.104330000000     0.657420000000     0          
O4920    O      0.127550000000     0.127550000000     0.721740000000     0          
O4921    O      0.098730000000     0.098730000000     0.700610000000     0          
O4922    O      0.152570000000     0.152570000000     0.677240000000     0          
O4923    O      0.131930000000     0.131930000000     0.641630000000     0          
O4924    O      0.182200000000     0.182200000000     0.618000000000     0          
Zr4925   Zr     0.654320000000     0.345680000000     0.783930000000     0          
Zr4926   Zr     0.604330000000     0.395670000000     0.842580000000     0          
O4927    O      0.627550000000     0.372450000000     0.778260000000     0          
O4928    O      0.598730000000     0.401270000000     0.799390000000     0          
O4929    O      0.652570000000     0.347430000000     0.822760000000     0          
O4930    O      0.631930000000     0.368070000000     0.858370000000     0          
O4931    O      0.682200000000     0.317800000000     0.882000000000     0          
Zr4932   Zr     0.154320000000     0.845680000000     0.283930000000     0          
Zr4933   Zr     0.104330000000     0.895670000000     0.342580000000     0          
O4934    O      0.127550000000     0.872450000000     0.278260000000     0          
O4935    O      0.098730000000     0.901270000000     0.299390000000     0          
O4936    O      0.152570000000     0.847430000000     0.322760000000     0          
O4937    O      0.131930000000     0.868070000000     0.358370000000     0          
O4938    O      0.182200000000     0.817800000000     0.382000000000     0          
Zr4939   Zr     0.345680000000     0.654320000000     0.783930000000     0          
Zr4940   Zr     0.395670000000     0.604330000000     0.842580000000     0          
O4941    O      0.372450000000     0.627550000000     0.778260000000     0          
O4942    O      0.401270000000     0.598730000000     0.799390000000     0          
O4943    O      0.347430000000     0.652570000000     0.822760000000     0          
O4944    O      0.368070000000     0.631930000000     0.858370000000     0          
O4945    O      0.317800000000     0.682200000000     0.882000000000     0          
Zr4946   Zr     0.845680000000     0.154320000000     0.283930000000     0          
Zr4947   Zr     0.895670000000     0.104330000000     0.342580000000     0          
O4948    O      0.872450000000     0.127550000000     0.278260000000     0          
O4949    O      0.901270000000     0.098730000000     0.299390000000     0          
O4950    O      0.847430000000     0.152570000000     0.322760000000     0          
O4951    O      0.868070000000     0.131930000000     0.358370000000     0          
O4952    O      0.817800000000     0.182200000000     0.382000000000     0          
Zr4953   Zr     0.216070000000     0.345680000000     0.345680000000     0          
Zr4954   Zr     0.157420000000     0.395670000000     0.395670000000     0          
O4955    O      0.221740000000     0.372450000000     0.372450000000     0          
O4956    O      0.200610000000     0.401270000000     0.401270000000     0          
O4957    O      0.177240000000     0.347430000000     0.347430000000     0          
O4958    O      0.141630000000     0.368070000000     0.368070000000     0          
O4959    O      0.118000000000     0.317800000000     0.317800000000     0          
Zr4960   Zr     0.716070000000     0.845680000000     0.845680000000     0          
Zr4961   Zr     0.657420000000     0.895670000000     0.895670000000     0          
O4962    O      0.721740000000     0.872450000000     0.872450000000     0          
O4963    O      0.700610000000     0.901270000000     0.901270000000     0          
O4964    O      0.677240000000     0.847430000000     0.847430000000     0          
O4965    O      0.641630000000     0.868070000000     0.868070000000     0          
O4966    O      0.618000000000     0.817800000000     0.817800000000     0          
Zr4967   Zr     0.216070000000     0.654320000000     0.654320000000     0          
Zr4968   Zr     0.157420000000     0.604330000000     0.604330000000     0          
O4969    O      0.221740000000     0.627550000000     0.627550000000     0          
O4970    O      0.200610000000     0.598730000000     0.598730000000     0          
O4971    O      0.177240000000     0.652570000000     0.652570000000     0          
O4972    O      0.141630000000     0.631930000000     0.631930000000     0          
O4973    O      0.118000000000     0.682200000000     0.682200000000     0          
Zr4974   Zr     0.716070000000     0.154320000000     0.154320000000     0          
Zr4975   Zr     0.657420000000     0.104330000000     0.104330000000     0          
O4976    O      0.721740000000     0.127550000000     0.127550000000     0          
O4977    O      0.700610000000     0.098730000000     0.098730000000     0          
O4978    O      0.677240000000     0.152570000000     0.152570000000     0          
O4979    O      0.641630000000     0.131930000000     0.131930000000     0          
O4980    O      0.618000000000     0.182200000000     0.182200000000     0          
Zr4981   Zr     0.783930000000     0.654320000000     0.345680000000     0          
Zr4982   Zr     0.842580000000     0.604330000000     0.395670000000     0          
O4983    O      0.778260000000     0.627550000000     0.372450000000     0          
O4984    O      0.799390000000     0.598730000000     0.401270000000     0          
O4985    O      0.822760000000     0.652570000000     0.347430000000     0          
O4986    O      0.858370000000     0.631930000000     0.368070000000     0          
O4987    O      0.882000000000     0.682200000000     0.317800000000     0          
Zr4988   Zr     0.283930000000     0.154320000000     0.845680000000     0          
Zr4989   Zr     0.342580000000     0.104330000000     0.895670000000     0          
O4990    O      0.278260000000     0.127550000000     0.872450000000     0          
O4991    O      0.299390000000     0.098730000000     0.901270000000     0          
O4992    O      0.322760000000     0.152570000000     0.847430000000     0          
O4993    O      0.358370000000     0.131930000000     0.868070000000     0          
O4994    O      0.382000000000     0.182200000000     0.817800000000     0          
Zr4995   Zr     0.783930000000     0.345680000000     0.654320000000     0          
Zr4996   Zr     0.842580000000     0.395670000000     0.604330000000     0          
O4997    O      0.778260000000     0.372450000000     0.627550000000     0          
O4998    O      0.799390000000     0.401270000000     0.598730000000     0          
O4999    O      0.822760000000     0.347430000000     0.652570000000     0          
O5000    O      0.858370000000     0.368070000000     0.631930000000     0          
O5001    O      0.882000000000     0.317800000000     0.682200000000     0          
Zr5002   Zr     0.283930000000     0.845680000000     0.154320000000     0          
Zr5003   Zr     0.342580000000     0.895670000000     0.104330000000     0          
O5004    O      0.278260000000     0.872450000000     0.127550000000     0          
O5005    O      0.299390000000     0.901270000000     0.098730000000     0          
O5006    O      0.322760000000     0.847430000000     0.152570000000     0          
O5007    O      0.358370000000     0.868070000000     0.131930000000     0          
O5008    O      0.382000000000     0.817800000000     0.182200000000     0          
Zr5009   Zr     0.345680000000     0.216070000000     0.345680000000     0          
Zr5010   Zr     0.395670000000     0.157420000000     0.395670000000     0          
O5011    O      0.372450000000     0.221740000000     0.372450000000     0          
O5012    O      0.401270000000     0.200610000000     0.401270000000     0          
O5013    O      0.347430000000     0.177240000000     0.347430000000     0          
O5014    O      0.368070000000     0.141630000000     0.368070000000     0          
O5015    O      0.317800000000     0.118000000000     0.317800000000     0          
Zr5016   Zr     0.845680000000     0.716070000000     0.845680000000     0          
Zr5017   Zr     0.895670000000     0.657420000000     0.895670000000     0          
O5018    O      0.872450000000     0.721740000000     0.872450000000     0          
O5019    O      0.901270000000     0.700610000000     0.901270000000     0          
O5020    O      0.847430000000     0.677240000000     0.847430000000     0          
O5021    O      0.868070000000     0.641630000000     0.868070000000     0          
O5022    O      0.817800000000     0.618000000000     0.817800000000     0          
Zr5023   Zr     0.654320000000     0.216070000000     0.654320000000     0          
Zr5024   Zr     0.604330000000     0.157420000000     0.604330000000     0          
O5025    O      0.627550000000     0.221740000000     0.627550000000     0          
O5026    O      0.598730000000     0.200610000000     0.598730000000     0          
O5027    O      0.652570000000     0.177240000000     0.652570000000     0          
O5028    O      0.631930000000     0.141630000000     0.631930000000     0          
O5029    O      0.682200000000     0.118000000000     0.682200000000     0          
Zr5030   Zr     0.154320000000     0.716070000000     0.154320000000     0          
Zr5031   Zr     0.104330000000     0.657420000000     0.104330000000     0          
O5032    O      0.127550000000     0.721740000000     0.127550000000     0          
O5033    O      0.098730000000     0.700610000000     0.098730000000     0          
O5034    O      0.152570000000     0.677240000000     0.152570000000     0          
O5035    O      0.131930000000     0.641630000000     0.131930000000     0          
O5036    O      0.182200000000     0.618000000000     0.182200000000     0          
Zr5037   Zr     0.345680000000     0.783930000000     0.654320000000     0          
Zr5038   Zr     0.395670000000     0.842580000000     0.604330000000     0          
O5039    O      0.372450000000     0.778260000000     0.627550000000     0          
O5040    O      0.401270000000     0.799390000000     0.598730000000     0          
O5041    O      0.347430000000     0.822760000000     0.652570000000     0          
O5042    O      0.368070000000     0.858370000000     0.631930000000     0          
O5043    O      0.317800000000     0.882000000000     0.682200000000     0          
Zr5044   Zr     0.845680000000     0.283930000000     0.154320000000     0          
Zr5045   Zr     0.895670000000     0.342580000000     0.104330000000     0          
O5046    O      0.872450000000     0.278260000000     0.127550000000     0          
O5047    O      0.901270000000     0.299390000000     0.098730000000     0          
O5048    O      0.847430000000     0.322760000000     0.152570000000     0          
O5049    O      0.868070000000     0.358370000000     0.131930000000     0          
O5050    O      0.817800000000     0.382000000000     0.182200000000     0          
Zr5051   Zr     0.654320000000     0.783930000000     0.345680000000     0          
Zr5052   Zr     0.604330000000     0.842580000000     0.395670000000     0          
O5053    O      0.627550000000     0.778260000000     0.372450000000     0          
O5054    O      0.598730000000     0.799390000000     0.401270000000     0          
O5055    O      0.652570000000     0.822760000000     0.347430000000     0          
O5056    O      0.631930000000     0.858370000000     0.368070000000     0          
O5057    O      0.682200000000     0.882000000000     0.317800000000     0          
Zr5058   Zr     0.154320000000     0.283930000000     0.845680000000     0          
Zr5059   Zr     0.104330000000     0.342580000000     0.895670000000     0          
O5060    O      0.127550000000     0.278260000000     0.872450000000     0          
O5061    O      0.098730000000     0.299390000000     0.901270000000     0          
O5062    O      0.152570000000     0.322760000000     0.847430000000     0          
O5063    O      0.131930000000     0.358370000000     0.868070000000     0          
O5064    O      0.182200000000     0.382000000000     0.817800000000     0          
Zr5065   Zr     0.345680000000     0.345680000000     0.783930000000     0          
Zr5066   Zr     0.395670000000     0.395670000000     0.842580000000     0          
O5067    O      0.372450000000     0.372450000000     0.778260000000     0          
O5068    O      0.401270000000     0.401270000000     0.799390000000     0          
O5069    O      0.347430000000     0.347430000000     0.822760000000     0          
O5070    O      0.368070000000     0.368070000000     0.858370000000     0          
O5071    O      0.317800000000     0.317800000000     0.882000000000     0          
Zr5072   Zr     0.845680000000     0.845680000000     0.283930000000     0          
Zr5073   Zr     0.895670000000     0.895670000000     0.342580000000     0          
O5074    O      0.872450000000     0.872450000000     0.278260000000     0          
O5075    O      0.901270000000     0.901270000000     0.299390000000     0          
O5076    O      0.847430000000     0.847430000000     0.322760000000     0          
O5077    O      0.868070000000     0.868070000000     0.358370000000     0          
O5078    O      0.817800000000     0.817800000000     0.382000000000     0          
Zr5079   Zr     0.654320000000     0.654320000000     0.783930000000     0          
Zr5080   Zr     0.604330000000     0.604330000000     0.842580000000     0          
O5081    O      0.627550000000     0.627550000000     0.778260000000     0          
O5082    O      0.598730000000     0.598730000000     0.799390000000     0          
O5083    O      0.652570000000     0.652570000000     0.822760000000     0          
O5084    O      0.631930000000     0.631930000000     0.858370000000     0          
O5085    O      0.682200000000     0.682200000000     0.882000000000     0          
Zr5086   Zr     0.154320000000     0.154320000000     0.283930000000     0          
Zr5087   Zr     0.104330000000     0.104330000000     0.342580000000     0          
O5088    O      0.127550000000     0.127550000000     0.278260000000     0          
O5089    O      0.098730000000     0.098730000000     0.299390000000     0          
O5090    O      0.152570000000     0.152570000000     0.322760000000     0          
O5091    O      0.131930000000     0.131930000000     0.358370000000     0          
O5092    O      0.182200000000     0.182200000000     0.382000000000     0          
Zr5093   Zr     0.345680000000     0.654320000000     0.216070000000     0          
Zr5094   Zr     0.395670000000     0.604330000000     0.157420000000     0          
O5095    O      0.372450000000     0.627550000000     0.221740000000     0          
O5096    O      0.401270000000     0.598730000000     0.200610000000     0          
O5097    O      0.347430000000     0.652570000000     0.177240000000     0          
O5098    O      0.368070000000     0.631930000000     0.141630000000     0          
O5099    O      0.317800000000     0.682200000000     0.118000000000     0          
Zr5100   Zr     0.845680000000     0.154320000000     0.716070000000     0          
Zr5101   Zr     0.895670000000     0.104330000000     0.657420000000     0          
O5102    O      0.872450000000     0.127550000000     0.721740000000     0          
O5103    O      0.901270000000     0.098730000000     0.700610000000     0          
O5104    O      0.847430000000     0.152570000000     0.677240000000     0          
O5105    O      0.868070000000     0.131930000000     0.641630000000     0          
O5106    O      0.817800000000     0.182200000000     0.618000000000     0          
Zr5107   Zr     0.654320000000     0.345680000000     0.216070000000     0          
Zr5108   Zr     0.604330000000     0.395670000000     0.157420000000     0          
O5109    O      0.627550000000     0.372450000000     0.221740000000     0          
O5110    O      0.598730000000     0.401270000000     0.200610000000     0          
O5111    O      0.652570000000     0.347430000000     0.177240000000     0          
O5112    O      0.631930000000     0.368070000000     0.141630000000     0          
O5113    O      0.682200000000     0.317800000000     0.118000000000     0          
Zr5114   Zr     0.154320000000     0.845680000000     0.716070000000     0          
Zr5115   Zr     0.104330000000     0.895670000000     0.657420000000     0          
O5116    O      0.127550000000     0.872450000000     0.721740000000     0          
O5117    O      0.098730000000     0.901270000000     0.700610000000     0          
O5118    O      0.152570000000     0.847430000000     0.677240000000     0          
O5119    O      0.131930000000     0.868070000000     0.641630000000     0          
O5120    O      0.182200000000     0.817800000000     0.618000000000     0          
Zr5121   Zr     0.345680000000     0.216070000000     0.654320000000     0          
Zr5122   Zr     0.395670000000     0.157420000000     0.604330000000     0          
O5123    O      0.372450000000     0.221740000000     0.627550000000     0          
O5124    O      0.401270000000     0.200610000000     0.598730000000     0          
O5125    O      0.347430000000     0.177240000000     0.652570000000     0          
O5126    O      0.368070000000     0.141630000000     0.631930000000     0          
O5127    O      0.317800000000     0.118000000000     0.682200000000     0          
Zr5128   Zr     0.845680000000     0.716070000000     0.154320000000     0          
Zr5129   Zr     0.895670000000     0.657420000000     0.104330000000     0          
O5130    O      0.872450000000     0.721740000000     0.127550000000     0          
O5131    O      0.901270000000     0.700610000000     0.098730000000     0          
O5132    O      0.847430000000     0.677240000000     0.152570000000     0          
O5133    O      0.868070000000     0.641630000000     0.131930000000     0          
O5134    O      0.817800000000     0.618000000000     0.182200000000     0          
Zr5135   Zr     0.654320000000     0.216070000000     0.345680000000     0          
Zr5136   Zr     0.604330000000     0.157420000000     0.395670000000     0          
O5137    O      0.627550000000     0.221740000000     0.372450000000     0          
O5138    O      0.598730000000     0.200610000000     0.401270000000     0          
O5139    O      0.652570000000     0.177240000000     0.347430000000     0          
O5140    O      0.631930000000     0.141630000000     0.368070000000     0          
O5141    O      0.682200000000     0.118000000000     0.317800000000     0          
Zr5142   Zr     0.154320000000     0.716070000000     0.845680000000     0          
Zr5143   Zr     0.104330000000     0.657420000000     0.895670000000     0          
O5144    O      0.127550000000     0.721740000000     0.872450000000     0          
O5145    O      0.098730000000     0.700610000000     0.901270000000     0          
O5146    O      0.152570000000     0.677240000000     0.847430000000     0          
O5147    O      0.131930000000     0.641630000000     0.868070000000     0          
O5148    O      0.182200000000     0.618000000000     0.817800000000     0          
Zr5149   Zr     0.654320000000     0.783930000000     0.654320000000     0          
Zr5150   Zr     0.604330000000     0.842580000000     0.604330000000     0          
O5151    O      0.627550000000     0.778260000000     0.627550000000     0          
O5152    O      0.598730000000     0.799390000000     0.598730000000     0          
O5153    O      0.652570000000     0.822760000000     0.652570000000     0          
O5154    O      0.631930000000     0.858370000000     0.631930000000     0          
O5155    O      0.682200000000     0.882000000000     0.682200000000     0          
Zr5156   Zr     0.154320000000     0.283930000000     0.154320000000     0          
Zr5157   Zr     0.104330000000     0.342580000000     0.104330000000     0          
O5158    O      0.127550000000     0.278260000000     0.127550000000     0          
O5159    O      0.098730000000     0.299390000000     0.098730000000     0          
O5160    O      0.152570000000     0.322760000000     0.152570000000     0          
O5161    O      0.131930000000     0.358370000000     0.131930000000     0          
O5162    O      0.182200000000     0.382000000000     0.182200000000     0          
Zr5163   Zr     0.345680000000     0.783930000000     0.345680000000     0          
Zr5164   Zr     0.395670000000     0.842580000000     0.395670000000     0          
O5165    O      0.372450000000     0.778260000000     0.372450000000     0          
O5166    O      0.401270000000     0.799390000000     0.401270000000     0          
O5167    O      0.347430000000     0.822760000000     0.347430000000     0          
O5168    O      0.368070000000     0.858370000000     0.368070000000     0          
O5169    O      0.317800000000     0.882000000000     0.317800000000     0          
Zr5170   Zr     0.845680000000     0.283930000000     0.845680000000     0          
Zr5171   Zr     0.895670000000     0.342580000000     0.895670000000     0          
O5172    O      0.872450000000     0.278260000000     0.872450000000     0          
O5173    O      0.901270000000     0.299390000000     0.901270000000     0          
O5174    O      0.847430000000     0.322760000000     0.847430000000     0          
O5175    O      0.868070000000     0.358370000000     0.868070000000     0          
O5176    O      0.817800000000     0.382000000000     0.817800000000     0          
Zr5177   Zr     0.216070000000     0.345680000000     0.654320000000     0          
Zr5178   Zr     0.157420000000     0.395670000000     0.604330000000     0          
O5179    O      0.221740000000     0.372450000000     0.627550000000     0          
O5180    O      0.200610000000     0.401270000000     0.598730000000     0          
O5181    O      0.177240000000     0.347430000000     0.652570000000     0          
O5182    O      0.141630000000     0.368070000000     0.631930000000     0          
O5183    O      0.118000000000     0.317800000000     0.682200000000     0          
Zr5184   Zr     0.716070000000     0.845680000000     0.154320000000     0          
Zr5185   Zr     0.657420000000     0.895670000000     0.104330000000     0          
O5186    O      0.721740000000     0.872450000000     0.127550000000     0          
O5187    O      0.700610000000     0.901270000000     0.098730000000     0          
O5188    O      0.677240000000     0.847430000000     0.152570000000     0          
O5189    O      0.641630000000     0.868070000000     0.131930000000     0          
O5190    O      0.618000000000     0.817800000000     0.182200000000     0          
Zr5191   Zr     0.216070000000     0.654320000000     0.345680000000     0          
Zr5192   Zr     0.157420000000     0.604330000000     0.395670000000     0          
O5193    O      0.221740000000     0.627550000000     0.372450000000     0          
O5194    O      0.200610000000     0.598730000000     0.401270000000     0          
O5195    O      0.177240000000     0.652570000000     0.347430000000     0          
O5196    O      0.141630000000     0.631930000000     0.368070000000     0          
O5197    O      0.118000000000     0.682200000000     0.317800000000     0          
Zr5198   Zr     0.716070000000     0.154320000000     0.845680000000     0          
Zr5199   Zr     0.657420000000     0.104330000000     0.895670000000     0          
O5200    O      0.721740000000     0.127550000000     0.872450000000     0          
O5201    O      0.700610000000     0.098730000000     0.901270000000     0          
O5202    O      0.677240000000     0.152570000000     0.847430000000     0          
O5203    O      0.641630000000     0.131930000000     0.868070000000     0          
O5204    O      0.618000000000     0.182200000000     0.817800000000     0          
Zr5205   Zr     0.783930000000     0.345680000000     0.345680000000     0          
Zr5206   Zr     0.842580000000     0.395670000000     0.395670000000     0          
O5207    O      0.778260000000     0.372450000000     0.372450000000     0          
O5208    O      0.799390000000     0.401270000000     0.401270000000     0          
O5209    O      0.822760000000     0.347430000000     0.347430000000     0          
O5210    O      0.858370000000     0.368070000000     0.368070000000     0          
O5211    O      0.882000000000     0.317800000000     0.317800000000     0          
Zr5212   Zr     0.283930000000     0.845680000000     0.845680000000     0          
Zr5213   Zr     0.342580000000     0.895670000000     0.895670000000     0          
O5214    O      0.278260000000     0.872450000000     0.872450000000     0          
O5215    O      0.299390000000     0.901270000000     0.901270000000     0          
O5216    O      0.322760000000     0.847430000000     0.847430000000     0          
O5217    O      0.358370000000     0.868070000000     0.868070000000     0          
O5218    O      0.382000000000     0.817800000000     0.817800000000     0          
Zr5219   Zr     0.783930000000     0.654320000000     0.654320000000     0          
Zr5220   Zr     0.842580000000     0.604330000000     0.604330000000     0          
O5221    O      0.778260000000     0.627550000000     0.627550000000     0          
O5222    O      0.799390000000     0.598730000000     0.598730000000     0          
O5223    O      0.822760000000     0.652570000000     0.652570000000     0          
O5224    O      0.858370000000     0.631930000000     0.631930000000     0          
O5225    O      0.882000000000     0.682200000000     0.682200000000     0          
Zr5226   Zr     0.283930000000     0.154320000000     0.154320000000     0          
Zr5227   Zr     0.342580000000     0.104330000000     0.104330000000     0          
O5228    O      0.278260000000     0.127550000000     0.127550000000     0          
O5229    O      0.299390000000     0.098730000000     0.098730000000     0          
O5230    O      0.322760000000     0.152570000000     0.152570000000     0          
O5231    O      0.358370000000     0.131930000000     0.131930000000     0          
O5232    O      0.382000000000     0.182200000000     0.182200000000     0          
Zr5233   Zr     0.250000000000     0.467030000000     0.032970000000     0          
S5234    S      0.250000000000     0.337230000000     0.162770000000     0          
Zr5235   Zr     0.750000000000     0.532970000000     0.032970000000     0          
S5236    S      0.750000000000     0.662770000000     0.162770000000     0          
Zr5237   Zr     0.750000000000     0.467030000000     0.967030000000     0          
S5238    S      0.750000000000     0.337230000000     0.837230000000     0          
Zr5239   Zr     0.250000000000     0.532970000000     0.967030000000     0          
S5240    S      0.250000000000     0.662770000000     0.837230000000     0          
Zr5241   Zr     0.032970000000     0.250000000000     0.467030000000     0          
S5242    S      0.162770000000     0.250000000000     0.337230000000     0          
Zr5243   Zr     0.032970000000     0.750000000000     0.532970000000     0          
S5244    S      0.162770000000     0.750000000000     0.662770000000     0          
Zr5245   Zr     0.967030000000     0.750000000000     0.467030000000     0          
S5246    S      0.837230000000     0.750000000000     0.337230000000     0          
Zr5247   Zr     0.967030000000     0.250000000000     0.532970000000     0          
S5248    S      0.837230000000     0.250000000000     0.662770000000     0          
Zr5249   Zr     0.467030000000     0.032970000000     0.250000000000     0          
S5250    S      0.337230000000     0.162770000000     0.250000000000     0          
Zr5251   Zr     0.532970000000     0.032970000000     0.750000000000     0          
S5252    S      0.662770000000     0.162770000000     0.750000000000     0          
Zr5253   Zr     0.467030000000     0.967030000000     0.750000000000     0          
S5254    S      0.337230000000     0.837230000000     0.750000000000     0          
Zr5255   Zr     0.532970000000     0.967030000000     0.250000000000     0          
S5256    S      0.662770000000     0.837230000000     0.250000000000     0          
Zr5257   Zr     0.467030000000     0.250000000000     0.967030000000     0          
S5258    S      0.337230000000     0.250000000000     0.837230000000     0          
Zr5259   Zr     0.532970000000     0.750000000000     0.967030000000     0          
S5260    S      0.662770000000     0.750000000000     0.837230000000     0          
Zr5261   Zr     0.467030000000     0.750000000000     0.032970000000     0          
S5262    S      0.337230000000     0.750000000000     0.162770000000     0          
Zr5263   Zr     0.532970000000     0.250000000000     0.032970000000     0          
S5264    S      0.662770000000     0.250000000000     0.162770000000     0          
Zr5265   Zr     0.250000000000     0.032970000000     0.532970000000     0          
S5266    S      0.250000000000     0.162770000000     0.662770000000     0          
Zr5267   Zr     0.750000000000     0.032970000000     0.467030000000     0          
S5268    S      0.750000000000     0.162770000000     0.337230000000     0          
Zr5269   Zr     0.750000000000     0.967030000000     0.532970000000     0          
S5270    S      0.750000000000     0.837230000000     0.662770000000     0          
Zr5271   Zr     0.250000000000     0.967030000000     0.467030000000     0          
S5272    S      0.250000000000     0.837230000000     0.337230000000     0          
Zr5273   Zr     0.032970000000     0.467030000000     0.750000000000     0          
S5274    S      0.162770000000     0.337230000000     0.750000000000     0          
Zr5275   Zr     0.032970000000     0.532970000000     0.250000000000     0          
S5276    S      0.162770000000     0.662770000000     0.250000000000     0          
Zr5277   Zr     0.967030000000     0.467030000000     0.250000000000     0          
S5278    S      0.837230000000     0.337230000000     0.250000000000     0          
Zr5279   Zr     0.967030000000     0.532970000000     0.750000000000     0          
S5280    S      0.837230000000     0.662770000000     0.750000000000     0          
Zr5281   Zr     0.750000000000     0.532970000000     0.967030000000     0          
S5282    S      0.750000000000     0.662770000000     0.837230000000     0          
Zr5283   Zr     0.250000000000     0.032970000000     0.467030000000     0          
S5284    S      0.250000000000     0.162770000000     0.337230000000     0          
Zr5285   Zr     0.250000000000     0.467030000000     0.967030000000     0          
S5286    S      0.250000000000     0.337230000000     0.837230000000     0          
Zr5287   Zr     0.250000000000     0.532970000000     0.032970000000     0          
S5288    S      0.250000000000     0.662770000000     0.162770000000     0          
Zr5289   Zr     0.750000000000     0.467030000000     0.032970000000     0          
S5290    S      0.750000000000     0.337230000000     0.162770000000     0          
Zr5291   Zr     0.967030000000     0.750000000000     0.532970000000     0          
S5292    S      0.837230000000     0.750000000000     0.662770000000     0          
Zr5293   Zr     0.467030000000     0.250000000000     0.032970000000     0          
S5294    S      0.337230000000     0.250000000000     0.162770000000     0          
Zr5295   Zr     0.967030000000     0.250000000000     0.467030000000     0          
S5296    S      0.837230000000     0.250000000000     0.337230000000     0          
Zr5297   Zr     0.032970000000     0.250000000000     0.532970000000     0          
S5298    S      0.162770000000     0.250000000000     0.662770000000     0          
Zr5299   Zr     0.032970000000     0.750000000000     0.467030000000     0          
S5300    S      0.162770000000     0.750000000000     0.337230000000     0          
Zr5301   Zr     0.532970000000     0.967030000000     0.750000000000     0          
S5302    S      0.662770000000     0.837230000000     0.750000000000     0          
Zr5303   Zr     0.032970000000     0.467030000000     0.250000000000     0          
S5304    S      0.162770000000     0.337230000000     0.250000000000     0          
Zr5305   Zr     0.467030000000     0.967030000000     0.250000000000     0          
S5306    S      0.337230000000     0.837230000000     0.250000000000     0          
Zr5307   Zr     0.532970000000     0.032970000000     0.250000000000     0          
S5308    S      0.662770000000     0.162770000000     0.250000000000     0          
Zr5309   Zr     0.467030000000     0.032970000000     0.750000000000     0          
S5310    S      0.337230000000     0.162770000000     0.750000000000     0          
Zr5311   Zr     0.532970000000     0.750000000000     0.032970000000     0          
S5312    S      0.662770000000     0.750000000000     0.162770000000     0          
Zr5313   Zr     0.532970000000     0.250000000000     0.967030000000     0          
S5314    S      0.662770000000     0.250000000000     0.837230000000     0          
Zr5315   Zr     0.467030000000     0.750000000000     0.967030000000     0          
S5316    S      0.337230000000     0.750000000000     0.837230000000     0          
Zr5317   Zr     0.750000000000     0.967030000000     0.467030000000     0          
S5318    S      0.750000000000     0.837230000000     0.337230000000     0          
Zr5319   Zr     0.250000000000     0.967030000000     0.532970000000     0          
S5320    S      0.250000000000     0.837230000000     0.662770000000     0          
Zr5321   Zr     0.750000000000     0.032970000000     0.532970000000     0          
S5322    S      0.750000000000     0.162770000000     0.662770000000     0          
Zr5323   Zr     0.967030000000     0.532970000000     0.250000000000     0          
S5324    S      0.837230000000     0.662770000000     0.250000000000     0          
Zr5325   Zr     0.967030000000     0.467030000000     0.750000000000     0          
S5326    S      0.837230000000     0.337230000000     0.750000000000     0          
Zr5327   Zr     0.032970000000     0.532970000000     0.750000000000     0          
S5328    S      0.162770000000     0.662770000000     0.750000000000     0          
Zr5329   Zr     0.295960000000     0.500000000000     0.000000000000     0          
Zr5330   Zr     0.795960000000     0.000000000000     0.500000000000     0          
Zr5331   Zr     0.704040000000     0.500000000000     0.000000000000     0          
Zr5332   Zr     0.204040000000     0.000000000000     0.500000000000     0          
Zr5333   Zr     0.000000000000     0.295960000000     0.500000000000     0          
Zr5334   Zr     0.500000000000     0.795960000000     0.000000000000     0          
Zr5335   Zr     0.000000000000     0.704040000000     0.500000000000     0          
Zr5336   Zr     0.500000000000     0.204040000000     0.000000000000     0          
Zr5337   Zr     0.500000000000     0.000000000000     0.295960000000     0          
Zr5338   Zr     0.000000000000     0.500000000000     0.795960000000     0          
Zr5339   Zr     0.500000000000     0.000000000000     0.704040000000     0          
Zr5340   Zr     0.000000000000     0.500000000000     0.204040000000     0          
Zr5341   Zr     0.500000000000     0.295960000000     0.000000000000     0          
Zr5342   Zr     0.000000000000     0.795960000000     0.500000000000     0          
Zr5343   Zr     0.500000000000     0.704040000000     0.000000000000     0          
Zr5344   Zr     0.000000000000     0.204040000000     0.500000000000     0          
Zr5345   Zr     0.295960000000     0.000000000000     0.500000000000     0          
Zr5346   Zr     0.795960000000     0.500000000000     0.000000000000     0          
Zr5347   Zr     0.704040000000     0.000000000000     0.500000000000     0          
Zr5348   Zr     0.204040000000     0.500000000000     0.000000000000     0          
Zr5349   Zr     0.000000000000     0.500000000000     0.704040000000     0          
Zr5350   Zr     0.500000000000     0.000000000000     0.204040000000     0          
Zr5351   Zr     0.000000000000     0.500000000000     0.295960000000     0          
Zr5352   Zr     0.500000000000     0.000000000000     0.795960000000     0          
S5353    S      0.290680000000     0.369180000000     0.290680000000     0          
S5354    S      0.790680000000     0.869180000000     0.790680000000     0          
S5355    S      0.709320000000     0.630820000000     0.290680000000     0          
S5356    S      0.209320000000     0.130820000000     0.790680000000     0          
S5357    S      0.709320000000     0.369180000000     0.709320000000     0          
S5358    S      0.209320000000     0.869180000000     0.209320000000     0          
S5359    S      0.290680000000     0.630820000000     0.709320000000     0          
S5360    S      0.790680000000     0.130820000000     0.209320000000     0          
S5361    S      0.290680000000     0.290680000000     0.369180000000     0          
S5362    S      0.790680000000     0.790680000000     0.869180000000     0          
S5363    S      0.290680000000     0.709320000000     0.630820000000     0          
S5364    S      0.790680000000     0.209320000000     0.130820000000     0          
S5365    S      0.709320000000     0.709320000000     0.369180000000     0          
S5366    S      0.209320000000     0.209320000000     0.869180000000     0          
S5367    S      0.709320000000     0.290680000000     0.630820000000     0          
S5368    S      0.209320000000     0.790680000000     0.130820000000     0          
S5369    S      0.369180000000     0.290680000000     0.290680000000     0          
S5370    S      0.869180000000     0.790680000000     0.790680000000     0          
S5371    S      0.630820000000     0.290680000000     0.709320000000     0          
S5372    S      0.130820000000     0.790680000000     0.209320000000     0          
S5373    S      0.369180000000     0.709320000000     0.709320000000     0          
S5374    S      0.869180000000     0.209320000000     0.209320000000     0          
S5375    S      0.630820000000     0.709320000000     0.290680000000     0          
S5376    S      0.130820000000     0.209320000000     0.790680000000     0          
S5377    S      0.369180000000     0.290680000000     0.709320000000     0          
S5378    S      0.869180000000     0.790680000000     0.209320000000     0          
S5379    S      0.630820000000     0.709320000000     0.709320000000     0          
S5380    S      0.130820000000     0.209320000000     0.209320000000     0          
S5381    S      0.369180000000     0.709320000000     0.290680000000     0          
S5382    S      0.869180000000     0.209320000000     0.790680000000     0          
S5383    S      0.630820000000     0.290680000000     0.290680000000     0          
S5384    S      0.130820000000     0.790680000000     0.790680000000     0          
S5385    S      0.290680000000     0.290680000000     0.630820000000     0          
S5386    S      0.790680000000     0.790680000000     0.130820000000     0          
S5387    S      0.709320000000     0.290680000000     0.369180000000     0          
S5388    S      0.209320000000     0.790680000000     0.869180000000     0          
S5389    S      0.709320000000     0.709320000000     0.630820000000     0          
S5390    S      0.209320000000     0.209320000000     0.130820000000     0          
S5391    S      0.290680000000     0.709320000000     0.369180000000     0          
S5392    S      0.790680000000     0.209320000000     0.869180000000     0          
S5393    S      0.290680000000     0.369180000000     0.709320000000     0          
S5394    S      0.790680000000     0.869180000000     0.209320000000     0          
S5395    S      0.290680000000     0.630820000000     0.290680000000     0          
S5396    S      0.790680000000     0.130820000000     0.790680000000     0          
S5397    S      0.709320000000     0.369180000000     0.290680000000     0          
S5398    S      0.209320000000     0.869180000000     0.790680000000     0          
S5399    S      0.709320000000     0.630820000000     0.709320000000     0          
S5400    S      0.209320000000     0.130820000000     0.209320000000     0          
S5401    S      0.383240000000     0.500000000000     0.191850000000     0          
O5402    O      0.269610000000     0.500000000000     0.028020000000     0          
S5403    S      0.883240000000     0.000000000000     0.691850000000     0          
O5404    O      0.769610000000     0.000000000000     0.528020000000     0          
S5405    S      0.616760000000     0.500000000000     0.191850000000     0          
O5406    O      0.730390000000     0.500000000000     0.028020000000     0          
S5407    S      0.116760000000     0.000000000000     0.691850000000     0          
O5408    O      0.230390000000     0.000000000000     0.528020000000     0          
S5409    S      0.616760000000     0.500000000000     0.808150000000     0          
O5410    O      0.730390000000     0.500000000000     0.971980000000     0          
S5411    S      0.116760000000     0.000000000000     0.308150000000     0          
O5412    O      0.230390000000     0.000000000000     0.471980000000     0          
S5413    S      0.383240000000     0.500000000000     0.808150000000     0          
O5414    O      0.269610000000     0.500000000000     0.971980000000     0          
S5415    S      0.883240000000     0.000000000000     0.308150000000     0          
O5416    O      0.769610000000     0.000000000000     0.471980000000     0          
S5417    S      0.191850000000     0.383240000000     0.500000000000     0          
O5418    O      0.028020000000     0.269610000000     0.500000000000     0          
S5419    S      0.691850000000     0.883240000000     0.000000000000     0          
O5420    O      0.528020000000     0.769610000000     0.000000000000     0          
S5421    S      0.191850000000     0.616760000000     0.500000000000     0          
O5422    O      0.028020000000     0.730390000000     0.500000000000     0          
S5423    S      0.691850000000     0.116760000000     0.000000000000     0          
O5424    O      0.528020000000     0.230390000000     0.000000000000     0          
S5425    S      0.808150000000     0.616760000000     0.500000000000     0          
O5426    O      0.971980000000     0.730390000000     0.500000000000     0          
S5427    S      0.308150000000     0.116760000000     0.000000000000     0          
O5428    O      0.471980000000     0.230390000000     0.000000000000     0          
S5429    S      0.808150000000     0.383240000000     0.500000000000     0          
O5430    O      0.971980000000     0.269610000000     0.500000000000     0          
S5431    S      0.308150000000     0.883240000000     0.000000000000     0          
O5432    O      0.471980000000     0.769610000000     0.000000000000     0          
S5433    S      0.500000000000     0.191850000000     0.383240000000     0          
O5434    O      0.500000000000     0.028020000000     0.269610000000     0          
S5435    S      0.000000000000     0.691850000000     0.883240000000     0          
O5436    O      0.000000000000     0.528020000000     0.769610000000     0          
S5437    S      0.500000000000     0.191850000000     0.616760000000     0          
O5438    O      0.500000000000     0.028020000000     0.730390000000     0          
S5439    S      0.000000000000     0.691850000000     0.116760000000     0          
O5440    O      0.000000000000     0.528020000000     0.230390000000     0          
S5441    S      0.500000000000     0.808150000000     0.616760000000     0          
O5442    O      0.500000000000     0.971980000000     0.730390000000     0          
S5443    S      0.000000000000     0.308150000000     0.116760000000     0          
O5444    O      0.000000000000     0.471980000000     0.230390000000     0          
S5445    S      0.500000000000     0.808150000000     0.383240000000     0          
O5446    O      0.500000000000     0.971980000000     0.269610000000     0          
S5447    S      0.000000000000     0.308150000000     0.883240000000     0          
O5448    O      0.000000000000     0.471980000000     0.769610000000     0          
S5449    S      0.500000000000     0.383240000000     0.808150000000     0          
O5450    O      0.500000000000     0.269610000000     0.971980000000     0          
S5451    S      0.000000000000     0.883240000000     0.308150000000     0          
O5452    O      0.000000000000     0.769610000000     0.471980000000     0          
S5453    S      0.500000000000     0.616760000000     0.808150000000     0          
O5454    O      0.500000000000     0.730390000000     0.971980000000     0          
S5455    S      0.000000000000     0.116760000000     0.308150000000     0          
O5456    O      0.000000000000     0.230390000000     0.471980000000     0          
S5457    S      0.500000000000     0.616760000000     0.191850000000     0          
O5458    O      0.500000000000     0.730390000000     0.028020000000     0          
S5459    S      0.000000000000     0.116760000000     0.691850000000     0          
O5460    O      0.000000000000     0.230390000000     0.528020000000     0          
S5461    S      0.500000000000     0.383240000000     0.191850000000     0          
O5462    O      0.500000000000     0.269610000000     0.028020000000     0          
S5463    S      0.000000000000     0.883240000000     0.691850000000     0          
O5464    O      0.000000000000     0.769610000000     0.528020000000     0          
S5465    S      0.383240000000     0.191850000000     0.500000000000     0          
O5466    O      0.269610000000     0.028020000000     0.500000000000     0          
S5467    S      0.883240000000     0.691850000000     0.000000000000     0          
O5468    O      0.769610000000     0.528020000000     0.000000000000     0          
S5469    S      0.616760000000     0.191850000000     0.500000000000     0          
O5470    O      0.730390000000     0.028020000000     0.500000000000     0          
S5471    S      0.116760000000     0.691850000000     0.000000000000     0          
O5472    O      0.230390000000     0.528020000000     0.000000000000     0          
S5473    S      0.616760000000     0.808150000000     0.500000000000     0          
O5474    O      0.730390000000     0.971980000000     0.500000000000     0          
S5475    S      0.116760000000     0.308150000000     0.000000000000     0          
O5476    O      0.230390000000     0.471980000000     0.000000000000     0          
S5477    S      0.383240000000     0.808150000000     0.500000000000     0          
O5478    O      0.269610000000     0.971980000000     0.500000000000     0          
S5479    S      0.883240000000     0.308150000000     0.000000000000     0          
O5480    O      0.769610000000     0.471980000000     0.000000000000     0          
S5481    S      0.191850000000     0.500000000000     0.616760000000     0          
O5482    O      0.028020000000     0.500000000000     0.730390000000     0          
S5483    S      0.691850000000     0.000000000000     0.116760000000     0          
O5484    O      0.528020000000     0.000000000000     0.230390000000     0          
S5485    S      0.191850000000     0.500000000000     0.383240000000     0          
O5486    O      0.028020000000     0.500000000000     0.269610000000     0          
S5487    S      0.691850000000     0.000000000000     0.883240000000     0          
O5488    O      0.528020000000     0.000000000000     0.769610000000     0          
S5489    S      0.808150000000     0.500000000000     0.383240000000     0          
O5490    O      0.971980000000     0.500000000000     0.269610000000     0          
S5491    S      0.308150000000     0.000000000000     0.883240000000     0          
O5492    O      0.471980000000     0.000000000000     0.769610000000     0          
S5493    S      0.808150000000     0.500000000000     0.616760000000     0          
O5494    O      0.971980000000     0.500000000000     0.730390000000     0          
S5495    S      0.308150000000     0.000000000000     0.116760000000     0          
O5496    O      0.471980000000     0.000000000000     0.230390000000     0          
O5497    O      0.275480000000     0.462240000000     0.000000000000     0          
O5498    O      0.775480000000     0.962240000000     0.500000000000     0          
O5499    O      0.724520000000     0.537760000000     0.000000000000     0          
O5500    O      0.224520000000     0.037760000000     0.500000000000     0          
O5501    O      0.724520000000     0.462240000000     0.000000000000     0          
O5502    O      0.224520000000     0.962240000000     0.500000000000     0          
O5503    O      0.275480000000     0.537760000000     0.000000000000     0          
O5504    O      0.775480000000     0.037760000000     0.500000000000     0          
O5505    O      0.000000000000     0.275480000000     0.462240000000     0          
O5506    O      0.500000000000     0.775480000000     0.962240000000     0          
O5507    O      0.000000000000     0.724520000000     0.537760000000     0          
O5508    O      0.500000000000     0.224520000000     0.037760000000     0          
O5509    O      0.000000000000     0.724520000000     0.462240000000     0          
O5510    O      0.500000000000     0.224520000000     0.962240000000     0          
O5511    O      0.000000000000     0.275480000000     0.537760000000     0          
O5512    O      0.500000000000     0.775480000000     0.037760000000     0          
O5513    O      0.462240000000     0.000000000000     0.275480000000     0          
O5514    O      0.962240000000     0.500000000000     0.775480000000     0          
O5515    O      0.537760000000     0.000000000000     0.724520000000     0          
O5516    O      0.037760000000     0.500000000000     0.224520000000     0          
O5517    O      0.462240000000     0.000000000000     0.724520000000     0          
O5518    O      0.962240000000     0.500000000000     0.224520000000     0          
O5519    O      0.537760000000     0.000000000000     0.275480000000     0          
O5520    O      0.037760000000     0.500000000000     0.775480000000     0          
O5521    O      0.462240000000     0.275480000000     0.000000000000     0          
O5522    O      0.962240000000     0.775480000000     0.500000000000     0          
O5523    O      0.537760000000     0.724520000000     0.000000000000     0          
O5524    O      0.037760000000     0.224520000000     0.500000000000     0          
O5525    O      0.462240000000     0.724520000000     0.000000000000     0          
O5526    O      0.962240000000     0.224520000000     0.500000000000     0          
O5527    O      0.537760000000     0.275480000000     0.000000000000     0          
O5528    O      0.037760000000     0.775480000000     0.500000000000     0          
O5529    O      0.275480000000     0.000000000000     0.537760000000     0          
O5530    O      0.775480000000     0.500000000000     0.037760000000     0          
O5531    O      0.724520000000     0.000000000000     0.462240000000     0          
O5532    O      0.224520000000     0.500000000000     0.962240000000     0          
O5533    O      0.724520000000     0.000000000000     0.537760000000     0          
O5534    O      0.224520000000     0.500000000000     0.037760000000     0          
O5535    O      0.275480000000     0.000000000000     0.462240000000     0          
O5536    O      0.775480000000     0.500000000000     0.962240000000     0          
O5537    O      0.000000000000     0.462240000000     0.724520000000     0          
O5538    O      0.500000000000     0.962240000000     0.224520000000     0          
O5539    O      0.000000000000     0.537760000000     0.275480000000     0          
O5540    O      0.500000000000     0.037760000000     0.775480000000     0          
O5541    O      0.000000000000     0.462240000000     0.275480000000     0          
O5542    O      0.500000000000     0.962240000000     0.775480000000     0          
O5543    O      0.000000000000     0.537760000000     0.724520000000     0          
O5544    O      0.500000000000     0.037760000000     0.224520000000     0          


