data_XIJVIY

_audit_creation_method RASPA-1.0
_audit_creation_date 2020-11-2
_audit_author_name 'Rocio Bueno-Perez'

_cell_length_a    32.5979
_cell_length_b    32.5979
_cell_length_c    32.5979
_cell_angle_alpha 90
_cell_angle_beta  90
_cell_angle_gamma 90
_cell_volume      34639.3

_symmetry_cell_setting          triclinic
_symmetry_space_group_name_Hall 'P 1'
_symmetry_space_group_name_H-M  'P 1'
_symmetry_Int_Tables_number     1

_symmetry_equiv_pos_as_xyz 'x,y,z'

loop_
_atom_site_label
_atom_site_type_symbol
_atom_site_fract_x
_atom_site_fract_y
_atom_site_fract_z
_atom_site_charge
C1       C      0.577500000000     0.780500000000     0.779000000000     0          
H2       H      0.592200000000     0.792400000000     0.755600000000     0          
H3       H      0.593500000000     0.757700000000     0.790300000000     0          
H4       H      0.407800000000     0.207600000000     0.755600000000     0          
H5       H      0.406500000000     0.242300000000     0.790300000000     0          
C6       C      0.721000000000     0.422500000000     0.280500000000     0          
H7       H      0.744400000000     0.407800000000     0.292400000000     0          
H8       H      0.709700000000     0.406500000000     0.257700000000     0          
C9       C      0.721000000000     0.577500000000     0.719500000000     0          
H10      H      0.744400000000     0.592200000000     0.707600000000     0          
H11      H      0.709700000000     0.593500000000     0.742300000000     0          
C12      C      0.780500000000     0.221000000000     0.422500000000     0          
H13      H      0.801600000000     0.199900000000     0.426300000000     0          
C14      C      0.780500000000     0.721000000000     0.922500000000     0          
H15      H      0.801600000000     0.699900000000     0.926300000000     0          
C16      C      0.280500000000     0.221000000000     0.922500000000     0          
H17      H      0.301600000000     0.199900000000     0.926300000000     0          
C18      C      0.219500000000     0.721000000000     0.077500000000     0          
H19      H      0.198400000000     0.699900000000     0.073700000000     0          
C20      C      0.719500000000     0.221000000000     0.077500000000     0          
H21      H      0.698400000000     0.199900000000     0.073700000000     0          
C22      C      0.719500000000     0.721000000000     0.577500000000     0          
H23      H      0.707600000000     0.744400000000     0.592200000000     0          
H24      H      0.742300000000     0.709700000000     0.593500000000     0          
C25      C      0.280500000000     0.422500000000     0.279000000000     0          
H26      H      0.301600000000     0.426300000000     0.300100000000     0          
H27      H      0.198400000000     0.573700000000     0.800100000000     0          
H28      H      0.198400000000     0.073700000000     0.300100000000     0          
H29      H      0.698400000000     0.073700000000     0.800100000000     0          
H30      H      0.207600000000     0.907800000000     0.744400000000     0          
H31      H      0.242300000000     0.906500000000     0.709700000000     0          
H32      H      0.707600000000     0.907800000000     0.244400000000     0          
H33      H      0.742300000000     0.906500000000     0.209700000000     0          
C34      C      0.077500000000     0.221000000000     0.280500000000     0          
H35      H      0.073700000000     0.199900000000     0.301600000000     0          
C36      C      0.077500000000     0.721000000000     0.780500000000     0          
H37      H      0.073700000000     0.699900000000     0.801600000000     0          
H38      H      0.573700000000     0.800100000000     0.198400000000     0          
C39      C      0.422500000000     0.279000000000     0.280500000000     0          
H40      H      0.407800000000     0.255600000000     0.292400000000     0          
H41      H      0.406500000000     0.290300000000     0.257700000000     0          
H42      H      0.907800000000     0.755600000000     0.292400000000     0          
H43      H      0.906500000000     0.790300000000     0.257700000000     0          
H44      H      0.907800000000     0.255600000000     0.792400000000     0          
H45      H      0.906500000000     0.290300000000     0.757700000000     0          
C46      C      0.221000000000     0.780500000000     0.577500000000     0          
H47      H      0.244400000000     0.792400000000     0.592200000000     0          
H48      H      0.209700000000     0.757700000000     0.593500000000     0          
C49      C      0.279000000000     0.280500000000     0.422500000000     0          
H50      H      0.300100000000     0.301600000000     0.426300000000     0          
H51      H      0.092200000000     0.207600000000     0.255600000000     0          
H52      H      0.093500000000     0.242300000000     0.290300000000     0          
H53      H      0.092200000000     0.707600000000     0.755600000000     0          
H54      H      0.093500000000     0.742300000000     0.790300000000     0          
H55      H      0.426300000000     0.301600000000     0.300100000000     0          
C56      C      0.922500000000     0.780500000000     0.279000000000     0          
H57      H      0.926300000000     0.801600000000     0.300100000000     0          
C58      C      0.922500000000     0.280500000000     0.779000000000     0          
H59      H      0.926300000000     0.301600000000     0.800100000000     0          
C60      C      0.577500000000     0.780500000000     0.221000000000     0          
H61      H      0.592200000000     0.792400000000     0.244400000000     0          
H62      H      0.593500000000     0.757700000000     0.209700000000     0          
H63      H      0.255600000000     0.407800000000     0.292400000000     0          
H64      H      0.290300000000     0.406500000000     0.257700000000     0          
C65      C      0.221000000000     0.922500000000     0.719500000000     0          
H66      H      0.199900000000     0.926300000000     0.698400000000     0          
C67      C      0.721000000000     0.922500000000     0.219500000000     0          
H68      H      0.699900000000     0.926300000000     0.198400000000     0          
C69      C      0.221000000000     0.577500000000     0.780500000000     0          
H70      H      0.244400000000     0.592200000000     0.792400000000     0          
H71      H      0.209700000000     0.593500000000     0.757700000000     0          
C72      C      0.221000000000     0.077500000000     0.280500000000     0          
H73      H      0.244400000000     0.092200000000     0.292400000000     0          
H74      H      0.209700000000     0.093500000000     0.257700000000     0          
C75      C      0.721000000000     0.077500000000     0.780500000000     0          
H76      H      0.744400000000     0.092200000000     0.792400000000     0          
H77      H      0.709700000000     0.093500000000     0.757700000000     0          
H78      H      0.198400000000     0.800100000000     0.573700000000     0          
H79      H      0.292400000000     0.255600000000     0.407800000000     0          
H80      H      0.257700000000     0.290300000000     0.406500000000     0          
H81      H      0.698400000000     0.573700000000     0.699900000000     0          
H82      H      0.698400000000     0.426300000000     0.300100000000     0          
H83      H      0.573700000000     0.800100000000     0.801600000000     0          
C84      C      0.422500000000     0.221000000000     0.780500000000     0          
H85      H      0.426300000000     0.199900000000     0.801600000000     0          
H86      H      0.755600000000     0.207600000000     0.407800000000     0          
H87      H      0.790300000000     0.242300000000     0.406500000000     0          
H88      H      0.755600000000     0.707600000000     0.907800000000     0          
H89      H      0.790300000000     0.742300000000     0.906500000000     0          
H90      H      0.255600000000     0.207600000000     0.907800000000     0          
H91      H      0.290300000000     0.242300000000     0.906500000000     0          
H92      H      0.244400000000     0.707600000000     0.092200000000     0          
H93      H      0.209700000000     0.742300000000     0.093500000000     0          
H94      H      0.744400000000     0.207600000000     0.092200000000     0          
H95      H      0.709700000000     0.242300000000     0.093500000000     0          
H96      H      0.699900000000     0.698400000000     0.573700000000     0          
Zr97     Zr     0.500000000000     0.000000000000     0.075370000000     0          
Zr98     Zr     0.500000000000     0.500000000000     0.575370000000     0          
Zr99     Zr     0.500000000000     0.000000000000     0.924630000000     0          
Zr100    Zr     0.500000000000     0.500000000000     0.424630000000     0          
Zr101    Zr     0.075370000000     0.500000000000     0.000000000000     0          
Zr102    Zr     0.575370000000     0.500000000000     0.500000000000     0          
Zr103    Zr     0.924630000000     0.500000000000     0.000000000000     0          
Zr104    Zr     0.424630000000     0.500000000000     0.500000000000     0          
Zr105    Zr     0.000000000000     0.075370000000     0.500000000000     0          
Zr106    Zr     0.000000000000     0.575370000000     0.000000000000     0          
Zr107    Zr     0.000000000000     0.924630000000     0.500000000000     0          
Zr108    Zr     0.000000000000     0.424630000000     0.000000000000     0          
Zr109    Zr     0.000000000000     0.500000000000     0.924630000000     0          
Zr110    Zr     0.000000000000     0.000000000000     0.424630000000     0          
Zr111    Zr     0.000000000000     0.500000000000     0.075370000000     0          
Zr112    Zr     0.000000000000     0.000000000000     0.575370000000     0          
Zr113    Zr     0.500000000000     0.075370000000     0.000000000000     0          
Zr114    Zr     0.500000000000     0.575370000000     0.500000000000     0          
Zr115    Zr     0.500000000000     0.924630000000     0.000000000000     0          
Zr116    Zr     0.500000000000     0.424630000000     0.500000000000     0          
Zr117    Zr     0.075370000000     0.000000000000     0.500000000000     0          
Zr118    Zr     0.575370000000     0.000000000000     0.000000000000     0          
Zr119    Zr     0.924630000000     0.000000000000     0.500000000000     0          
Zr120    Zr     0.424630000000     0.000000000000     0.000000000000     0          
O121     O      0.537030000000     0.962970000000     0.037030000000     0          
O122     O      0.537030000000     0.462970000000     0.537030000000     0          
O123     O      0.462970000000     0.037030000000     0.037030000000     0          
O124     O      0.462970000000     0.537030000000     0.537030000000     0          
O125     O      0.462970000000     0.962970000000     0.962970000000     0          
O126     O      0.462970000000     0.462970000000     0.462970000000     0          
O127     O      0.537030000000     0.037030000000     0.962970000000     0          
O128     O      0.537030000000     0.537030000000     0.462970000000     0          
O129     O      0.037030000000     0.537030000000     0.962970000000     0          
O130     O      0.037030000000     0.462970000000     0.037030000000     0          
O131     O      0.962970000000     0.462970000000     0.962970000000     0          
O132     O      0.962970000000     0.537030000000     0.037030000000     0          
O133     O      0.962970000000     0.037030000000     0.537030000000     0          
O134     O      0.037030000000     0.037030000000     0.462970000000     0          
O135     O      0.962970000000     0.962970000000     0.462970000000     0          
O136     O      0.037030000000     0.962970000000     0.537030000000     0          
O137     O      0.962970000000     0.537030000000     0.962970000000     0          
O138     O      0.037030000000     0.462970000000     0.962970000000     0          
O139     O      0.962970000000     0.462970000000     0.037030000000     0          
O140     O      0.037030000000     0.537030000000     0.037030000000     0          
O141     O      0.537030000000     0.037030000000     0.037030000000     0          
O142     O      0.537030000000     0.537030000000     0.537030000000     0          
O143     O      0.462970000000     0.037030000000     0.962970000000     0          
O144     O      0.462970000000     0.537030000000     0.462970000000     0          
O145     O      0.462970000000     0.962970000000     0.037030000000     0          
O146     O      0.462970000000     0.462970000000     0.537030000000     0          
O147     O      0.537030000000     0.962970000000     0.962970000000     0          
O148     O      0.537030000000     0.462970000000     0.462970000000     0          
O149     O      0.037030000000     0.962970000000     0.462970000000     0          
O150     O      0.037030000000     0.037030000000     0.537030000000     0          
O151     O      0.962970000000     0.962970000000     0.537030000000     0          
O152     O      0.962970000000     0.037030000000     0.462970000000     0          
O153     O      0.500000000000     0.941300000000     0.108980000000     0          
C154     C      0.500000000000     0.883300000000     0.168100000000     0          
H155     H      0.500000000000     0.911400000000     0.175700000000     0          
C156     C      0.500000000000     0.853400000000     0.198100000000     0          
H157     H      0.500000000000     0.861100000000     0.226200000000     0          
O158     O      0.500000000000     0.441300000000     0.608980000000     0          
C159     C      0.500000000000     0.383300000000     0.668100000000     0          
H160     H      0.500000000000     0.411400000000     0.675700000000     0          
C161     C      0.500000000000     0.353400000000     0.698100000000     0          
H162     H      0.500000000000     0.361100000000     0.726200000000     0          
O163     O      0.000000000000     0.941300000000     0.608980000000     0          
C164     C      0.000000000000     0.883300000000     0.668100000000     0          
H165     H      0.000000000000     0.911400000000     0.675700000000     0          
C166     C      0.000000000000     0.853400000000     0.698100000000     0          
H167     H      0.000000000000     0.861100000000     0.726200000000     0          
O168     O      0.000000000000     0.441300000000     0.108980000000     0          
C169     C      0.000000000000     0.383300000000     0.168100000000     0          
H170     H      0.000000000000     0.411400000000     0.175700000000     0          
C171     C      0.000000000000     0.353400000000     0.198100000000     0          
H172     H      0.000000000000     0.361100000000     0.226200000000     0          
O173     O      0.500000000000     0.058700000000     0.108980000000     0          
C174     C      0.500000000000     0.116700000000     0.168100000000     0          
H175     H      0.500000000000     0.088600000000     0.175700000000     0          
C176     C      0.500000000000     0.146600000000     0.198100000000     0          
H177     H      0.500000000000     0.138900000000     0.226200000000     0          
O178     O      0.500000000000     0.558700000000     0.608980000000     0          
C179     C      0.500000000000     0.616700000000     0.668100000000     0          
H180     H      0.500000000000     0.588600000000     0.675700000000     0          
C181     C      0.500000000000     0.646600000000     0.698100000000     0          
H182     H      0.500000000000     0.638900000000     0.726200000000     0          
O183     O      0.000000000000     0.058700000000     0.608980000000     0          
C184     C      0.000000000000     0.116700000000     0.668100000000     0          
H185     H      0.000000000000     0.088600000000     0.675700000000     0          
C186     C      0.000000000000     0.146600000000     0.698100000000     0          
H187     H      0.000000000000     0.138900000000     0.726200000000     0          
O188     O      0.000000000000     0.558700000000     0.108980000000     0          
C189     C      0.000000000000     0.616700000000     0.168100000000     0          
H190     H      0.000000000000     0.588600000000     0.175700000000     0          
C191     C      0.000000000000     0.646600000000     0.198100000000     0          
H192     H      0.000000000000     0.638900000000     0.226200000000     0          
O193     O      0.500000000000     0.941300000000     0.891020000000     0          
C194     C      0.500000000000     0.883300000000     0.831900000000     0          
H195     H      0.500000000000     0.911400000000     0.824300000000     0          
C196     C      0.500000000000     0.853400000000     0.801900000000     0          
H197     H      0.500000000000     0.861100000000     0.773800000000     0          
O198     O      0.500000000000     0.441300000000     0.391020000000     0          
C199     C      0.500000000000     0.383300000000     0.331900000000     0          
H200     H      0.500000000000     0.411400000000     0.324300000000     0          
C201     C      0.500000000000     0.353400000000     0.301900000000     0          
H202     H      0.500000000000     0.361100000000     0.273800000000     0          
O203     O      0.000000000000     0.941300000000     0.391020000000     0          
C204     C      0.000000000000     0.883300000000     0.331900000000     0          
H205     H      0.000000000000     0.911400000000     0.324300000000     0          
C206     C      0.000000000000     0.853400000000     0.301900000000     0          
H207     H      0.000000000000     0.861100000000     0.273800000000     0          
O208     O      0.000000000000     0.441300000000     0.891020000000     0          
C209     C      0.000000000000     0.383300000000     0.831900000000     0          
H210     H      0.000000000000     0.411400000000     0.824300000000     0          
C211     C      0.000000000000     0.353400000000     0.801900000000     0          
H212     H      0.000000000000     0.361100000000     0.773800000000     0          
O213     O      0.500000000000     0.058700000000     0.891020000000     0          
C214     C      0.500000000000     0.116700000000     0.831900000000     0          
H215     H      0.500000000000     0.088600000000     0.824300000000     0          
C216     C      0.500000000000     0.146600000000     0.801900000000     0          
H217     H      0.500000000000     0.138900000000     0.773800000000     0          
O218     O      0.500000000000     0.558700000000     0.391020000000     0          
C219     C      0.500000000000     0.616700000000     0.331900000000     0          
H220     H      0.500000000000     0.588600000000     0.324300000000     0          
C221     C      0.500000000000     0.646600000000     0.301900000000     0          
H222     H      0.500000000000     0.638900000000     0.273800000000     0          
O223     O      0.000000000000     0.058700000000     0.391020000000     0          
C224     C      0.000000000000     0.116700000000     0.331900000000     0          
H225     H      0.000000000000     0.088600000000     0.324300000000     0          
C226     C      0.000000000000     0.146600000000     0.301900000000     0          
H227     H      0.000000000000     0.138900000000     0.273800000000     0          
O228     O      0.000000000000     0.558700000000     0.891020000000     0          
C229     C      0.000000000000     0.616700000000     0.831900000000     0          
H230     H      0.000000000000     0.588600000000     0.824300000000     0          
C231     C      0.000000000000     0.646600000000     0.801900000000     0          
H232     H      0.000000000000     0.638900000000     0.773800000000     0          
O233     O      0.108980000000     0.500000000000     0.941300000000     0          
C234     C      0.168100000000     0.500000000000     0.883300000000     0          
H235     H      0.175700000000     0.500000000000     0.911400000000     0          
C236     C      0.198100000000     0.500000000000     0.853400000000     0          
H237     H      0.226200000000     0.500000000000     0.861100000000     0          
O238     O      0.108980000000     0.000000000000     0.441300000000     0          
C239     C      0.168100000000     0.000000000000     0.383300000000     0          
H240     H      0.175700000000     0.000000000000     0.411400000000     0          
C241     C      0.198100000000     0.000000000000     0.353400000000     0          
H242     H      0.226200000000     0.000000000000     0.361100000000     0          
O243     O      0.608980000000     0.500000000000     0.441300000000     0          
C244     C      0.668100000000     0.500000000000     0.383300000000     0          
H245     H      0.675700000000     0.500000000000     0.411400000000     0          
C246     C      0.698100000000     0.500000000000     0.353400000000     0          
H247     H      0.726200000000     0.500000000000     0.361100000000     0          
O248     O      0.608980000000     0.000000000000     0.941300000000     0          
C249     C      0.668100000000     0.000000000000     0.883300000000     0          
H250     H      0.675700000000     0.000000000000     0.911400000000     0          
C251     C      0.698100000000     0.000000000000     0.853400000000     0          
H252     H      0.726200000000     0.000000000000     0.861100000000     0          
O253     O      0.108980000000     0.500000000000     0.058700000000     0          
C254     C      0.168100000000     0.500000000000     0.116700000000     0          
H255     H      0.175700000000     0.500000000000     0.088600000000     0          
C256     C      0.198100000000     0.500000000000     0.146600000000     0          
H257     H      0.226200000000     0.500000000000     0.138900000000     0          
O258     O      0.108980000000     0.000000000000     0.558700000000     0          
C259     C      0.168100000000     0.000000000000     0.616700000000     0          
H260     H      0.175700000000     0.000000000000     0.588600000000     0          
C261     C      0.198100000000     0.000000000000     0.646600000000     0          
H262     H      0.226200000000     0.000000000000     0.638900000000     0          
O263     O      0.608980000000     0.500000000000     0.558700000000     0          
C264     C      0.668100000000     0.500000000000     0.616700000000     0          
H265     H      0.675700000000     0.500000000000     0.588600000000     0          
C266     C      0.698100000000     0.500000000000     0.646600000000     0          
H267     H      0.726200000000     0.500000000000     0.638900000000     0          
O268     O      0.608980000000     0.000000000000     0.058700000000     0          
C269     C      0.668100000000     0.000000000000     0.116700000000     0          
H270     H      0.675700000000     0.000000000000     0.088600000000     0          
C271     C      0.698100000000     0.000000000000     0.146600000000     0          
H272     H      0.726200000000     0.000000000000     0.138900000000     0          
O273     O      0.891020000000     0.500000000000     0.941300000000     0          
C274     C      0.831900000000     0.500000000000     0.883300000000     0          
H275     H      0.824300000000     0.500000000000     0.911400000000     0          
C276     C      0.801900000000     0.500000000000     0.853400000000     0          
H277     H      0.773800000000     0.500000000000     0.861100000000     0          
O278     O      0.891020000000     0.000000000000     0.441300000000     0          
C279     C      0.831900000000     0.000000000000     0.383300000000     0          
H280     H      0.824300000000     0.000000000000     0.411400000000     0          
C281     C      0.801900000000     0.000000000000     0.353400000000     0          
H282     H      0.773800000000     0.000000000000     0.361100000000     0          
O283     O      0.391020000000     0.500000000000     0.441300000000     0          
C284     C      0.331900000000     0.500000000000     0.383300000000     0          
H285     H      0.324300000000     0.500000000000     0.411400000000     0          
C286     C      0.301900000000     0.500000000000     0.353400000000     0          
H287     H      0.273800000000     0.500000000000     0.361100000000     0          
O288     O      0.391020000000     0.000000000000     0.941300000000     0          
C289     C      0.331900000000     0.000000000000     0.883300000000     0          
H290     H      0.324300000000     0.000000000000     0.911400000000     0          
C291     C      0.301900000000     0.000000000000     0.853400000000     0          
H292     H      0.273800000000     0.000000000000     0.861100000000     0          
O293     O      0.891020000000     0.500000000000     0.058700000000     0          
C294     C      0.831900000000     0.500000000000     0.116700000000     0          
H295     H      0.824300000000     0.500000000000     0.088600000000     0          
C296     C      0.801900000000     0.500000000000     0.146600000000     0          
H297     H      0.773800000000     0.500000000000     0.138900000000     0          
O298     O      0.891020000000     0.000000000000     0.558700000000     0          
C299     C      0.831900000000     0.000000000000     0.616700000000     0          
H300     H      0.824300000000     0.000000000000     0.588600000000     0          
C301     C      0.801900000000     0.000000000000     0.646600000000     0          
H302     H      0.773800000000     0.000000000000     0.638900000000     0          
O303     O      0.391020000000     0.500000000000     0.558700000000     0          
C304     C      0.331900000000     0.500000000000     0.616700000000     0          
H305     H      0.324300000000     0.500000000000     0.588600000000     0          
C306     C      0.301900000000     0.500000000000     0.646600000000     0          
H307     H      0.273800000000     0.500000000000     0.638900000000     0          
O308     O      0.391020000000     0.000000000000     0.058700000000     0          
C309     C      0.331900000000     0.000000000000     0.116700000000     0          
H310     H      0.324300000000     0.000000000000     0.088600000000     0          
C311     C      0.301900000000     0.000000000000     0.146600000000     0          
H312     H      0.273800000000     0.000000000000     0.138900000000     0          
O313     O      0.941300000000     0.108980000000     0.500000000000     0          
C314     C      0.883300000000     0.168100000000     0.500000000000     0          
H315     H      0.911400000000     0.175700000000     0.500000000000     0          
C316     C      0.853400000000     0.198100000000     0.500000000000     0          
H317     H      0.861100000000     0.226200000000     0.500000000000     0          
O318     O      0.941300000000     0.608980000000     0.000000000000     0          
C319     C      0.883300000000     0.668100000000     0.000000000000     0          
H320     H      0.911400000000     0.675700000000     0.000000000000     0          
C321     C      0.853400000000     0.698100000000     0.000000000000     0          
H322     H      0.861100000000     0.726200000000     0.000000000000     0          
O323     O      0.441300000000     0.108980000000     0.000000000000     0          
C324     C      0.383300000000     0.168100000000     0.000000000000     0          
H325     H      0.411400000000     0.175700000000     0.000000000000     0          
C326     C      0.353400000000     0.198100000000     0.000000000000     0          
H327     H      0.361100000000     0.226200000000     0.000000000000     0          
O328     O      0.441300000000     0.608980000000     0.500000000000     0          
C329     C      0.383300000000     0.668100000000     0.500000000000     0          
H330     H      0.411400000000     0.675700000000     0.500000000000     0          
C331     C      0.353400000000     0.698100000000     0.500000000000     0          
H332     H      0.361100000000     0.726200000000     0.500000000000     0          
O333     O      0.058700000000     0.108980000000     0.500000000000     0          
C334     C      0.116700000000     0.168100000000     0.500000000000     0          
H335     H      0.088600000000     0.175700000000     0.500000000000     0          
C336     C      0.146600000000     0.198100000000     0.500000000000     0          
H337     H      0.138900000000     0.226200000000     0.500000000000     0          
O338     O      0.058700000000     0.608980000000     0.000000000000     0          
C339     C      0.116700000000     0.668100000000     0.000000000000     0          
H340     H      0.088600000000     0.675700000000     0.000000000000     0          
C341     C      0.146600000000     0.698100000000     0.000000000000     0          
H342     H      0.138900000000     0.726200000000     0.000000000000     0          
O343     O      0.558700000000     0.108980000000     0.000000000000     0          
C344     C      0.616700000000     0.168100000000     0.000000000000     0          
H345     H      0.588600000000     0.175700000000     0.000000000000     0          
C346     C      0.646600000000     0.198100000000     0.000000000000     0          
H347     H      0.638900000000     0.226200000000     0.000000000000     0          
O348     O      0.558700000000     0.608980000000     0.500000000000     0          
C349     C      0.616700000000     0.668100000000     0.500000000000     0          
H350     H      0.588600000000     0.675700000000     0.500000000000     0          
C351     C      0.646600000000     0.698100000000     0.500000000000     0          
H352     H      0.638900000000     0.726200000000     0.500000000000     0          
O353     O      0.941300000000     0.891020000000     0.500000000000     0          
C354     C      0.883300000000     0.831900000000     0.500000000000     0          
H355     H      0.911400000000     0.824300000000     0.500000000000     0          
C356     C      0.853400000000     0.801900000000     0.500000000000     0          
H357     H      0.861100000000     0.773800000000     0.500000000000     0          
O358     O      0.941300000000     0.391020000000     0.000000000000     0          
C359     C      0.883300000000     0.331900000000     0.000000000000     0          
H360     H      0.911400000000     0.324300000000     0.000000000000     0          
C361     C      0.853400000000     0.301900000000     0.000000000000     0          
H362     H      0.861100000000     0.273800000000     0.000000000000     0          
O363     O      0.441300000000     0.891020000000     0.000000000000     0          
C364     C      0.383300000000     0.831900000000     0.000000000000     0          
H365     H      0.411400000000     0.824300000000     0.000000000000     0          
C366     C      0.353400000000     0.801900000000     0.000000000000     0          
H367     H      0.361100000000     0.773800000000     0.000000000000     0          
O368     O      0.441300000000     0.391020000000     0.500000000000     0          
C369     C      0.383300000000     0.331900000000     0.500000000000     0          
H370     H      0.411400000000     0.324300000000     0.500000000000     0          
C371     C      0.353400000000     0.301900000000     0.500000000000     0          
H372     H      0.361100000000     0.273800000000     0.500000000000     0          
O373     O      0.058700000000     0.891020000000     0.500000000000     0          
C374     C      0.116700000000     0.831900000000     0.500000000000     0          
H375     H      0.088600000000     0.824300000000     0.500000000000     0          
C376     C      0.146600000000     0.801900000000     0.500000000000     0          
H377     H      0.138900000000     0.773800000000     0.500000000000     0          
O378     O      0.058700000000     0.391020000000     0.000000000000     0          
C379     C      0.116700000000     0.331900000000     0.000000000000     0          
H380     H      0.088600000000     0.324300000000     0.000000000000     0          
C381     C      0.146600000000     0.301900000000     0.000000000000     0          
H382     H      0.138900000000     0.273800000000     0.000000000000     0          
O383     O      0.558700000000     0.891020000000     0.000000000000     0          
C384     C      0.616700000000     0.831900000000     0.000000000000     0          
H385     H      0.588600000000     0.824300000000     0.000000000000     0          
C386     C      0.646600000000     0.801900000000     0.000000000000     0          
H387     H      0.638900000000     0.773800000000     0.000000000000     0          
O388     O      0.558700000000     0.391020000000     0.500000000000     0          
C389     C      0.616700000000     0.331900000000     0.500000000000     0          
H390     H      0.588600000000     0.324300000000     0.500000000000     0          
C391     C      0.646600000000     0.301900000000     0.500000000000     0          
H392     H      0.638900000000     0.273800000000     0.500000000000     0          
O393     O      0.941300000000     0.500000000000     0.891020000000     0          
C394     C      0.883300000000     0.500000000000     0.831900000000     0          
H395     H      0.911400000000     0.500000000000     0.824300000000     0          
C396     C      0.853400000000     0.500000000000     0.801900000000     0          
H397     H      0.861100000000     0.500000000000     0.773800000000     0          
O398     O      0.941300000000     0.000000000000     0.391020000000     0          
C399     C      0.883300000000     0.000000000000     0.331900000000     0          
H400     H      0.911400000000     0.000000000000     0.324300000000     0          
C401     C      0.853400000000     0.000000000000     0.301900000000     0          
H402     H      0.861100000000     0.000000000000     0.273800000000     0          
O403     O      0.441300000000     0.500000000000     0.391020000000     0          
C404     C      0.383300000000     0.500000000000     0.331900000000     0          
H405     H      0.411400000000     0.500000000000     0.324300000000     0          
C406     C      0.353400000000     0.500000000000     0.301900000000     0          
H407     H      0.361100000000     0.500000000000     0.273800000000     0          
O408     O      0.441300000000     0.000000000000     0.891020000000     0          
C409     C      0.383300000000     0.000000000000     0.831900000000     0          
H410     H      0.411400000000     0.000000000000     0.824300000000     0          
C411     C      0.353400000000     0.000000000000     0.801900000000     0          
H412     H      0.361100000000     0.000000000000     0.773800000000     0          
O413     O      0.058700000000     0.500000000000     0.891020000000     0          
C414     C      0.116700000000     0.500000000000     0.831900000000     0          
H415     H      0.088600000000     0.500000000000     0.824300000000     0          
C416     C      0.146600000000     0.500000000000     0.801900000000     0          
H417     H      0.138900000000     0.500000000000     0.773800000000     0          
O418     O      0.058700000000     0.000000000000     0.391020000000     0          
C419     C      0.116700000000     0.000000000000     0.331900000000     0          
H420     H      0.088600000000     0.000000000000     0.324300000000     0          
C421     C      0.146600000000     0.000000000000     0.301900000000     0          
H422     H      0.138900000000     0.000000000000     0.273800000000     0          
O423     O      0.558700000000     0.500000000000     0.391020000000     0          
C424     C      0.616700000000     0.500000000000     0.331900000000     0          
H425     H      0.588600000000     0.500000000000     0.324300000000     0          
C426     C      0.646600000000     0.500000000000     0.301900000000     0          
H427     H      0.638900000000     0.500000000000     0.273800000000     0          
O428     O      0.558700000000     0.000000000000     0.891020000000     0          
C429     C      0.616700000000     0.000000000000     0.831900000000     0          
H430     H      0.588600000000     0.000000000000     0.824300000000     0          
C431     C      0.646600000000     0.000000000000     0.801900000000     0          
H432     H      0.638900000000     0.000000000000     0.773800000000     0          
O433     O      0.941300000000     0.500000000000     0.108980000000     0          
C434     C      0.883300000000     0.500000000000     0.168100000000     0          
H435     H      0.911400000000     0.500000000000     0.175700000000     0          
C436     C      0.853400000000     0.500000000000     0.198100000000     0          
H437     H      0.861100000000     0.500000000000     0.226200000000     0          
O438     O      0.941300000000     0.000000000000     0.608980000000     0          
C439     C      0.883300000000     0.000000000000     0.668100000000     0          
H440     H      0.911400000000     0.000000000000     0.675700000000     0          
C441     C      0.853400000000     0.000000000000     0.698100000000     0          
H442     H      0.861100000000     0.000000000000     0.726200000000     0          
O443     O      0.441300000000     0.500000000000     0.608980000000     0          
C444     C      0.383300000000     0.500000000000     0.668100000000     0          
H445     H      0.411400000000     0.500000000000     0.675700000000     0          
C446     C      0.353400000000     0.500000000000     0.698100000000     0          
H447     H      0.361100000000     0.500000000000     0.726200000000     0          
O448     O      0.441300000000     0.000000000000     0.108980000000     0          
C449     C      0.383300000000     0.000000000000     0.168100000000     0          
H450     H      0.411400000000     0.000000000000     0.175700000000     0          
C451     C      0.353400000000     0.000000000000     0.198100000000     0          
H452     H      0.361100000000     0.000000000000     0.226200000000     0          
O453     O      0.058700000000     0.500000000000     0.108980000000     0          
C454     C      0.116700000000     0.500000000000     0.168100000000     0          
H455     H      0.088600000000     0.500000000000     0.175700000000     0          
C456     C      0.146600000000     0.500000000000     0.198100000000     0          
H457     H      0.138900000000     0.500000000000     0.226200000000     0          
O458     O      0.058700000000     0.000000000000     0.608980000000     0          
C459     C      0.116700000000     0.000000000000     0.668100000000     0          
H460     H      0.088600000000     0.000000000000     0.675700000000     0          
C461     C      0.146600000000     0.000000000000     0.698100000000     0          
H462     H      0.138900000000     0.000000000000     0.726200000000     0          
O463     O      0.558700000000     0.500000000000     0.608980000000     0          
C464     C      0.616700000000     0.500000000000     0.668100000000     0          
H465     H      0.588600000000     0.500000000000     0.675700000000     0          
C466     C      0.646600000000     0.500000000000     0.698100000000     0          
H467     H      0.638900000000     0.500000000000     0.726200000000     0          
O468     O      0.558700000000     0.000000000000     0.108980000000     0          
C469     C      0.616700000000     0.000000000000     0.168100000000     0          
H470     H      0.588600000000     0.000000000000     0.175700000000     0          
C471     C      0.646600000000     0.000000000000     0.198100000000     0          
H472     H      0.638900000000     0.000000000000     0.226200000000     0          
O473     O      0.500000000000     0.108980000000     0.058700000000     0          
C474     C      0.500000000000     0.168100000000     0.116700000000     0          
H475     H      0.500000000000     0.175700000000     0.088600000000     0          
C476     C      0.500000000000     0.198100000000     0.146600000000     0          
H477     H      0.500000000000     0.226200000000     0.138900000000     0          
O478     O      0.500000000000     0.608980000000     0.558700000000     0          
C479     C      0.500000000000     0.668100000000     0.616700000000     0          
H480     H      0.500000000000     0.675700000000     0.588600000000     0          
C481     C      0.500000000000     0.698100000000     0.646600000000     0          
H482     H      0.500000000000     0.726200000000     0.638900000000     0          
O483     O      0.000000000000     0.108980000000     0.558700000000     0          
C484     C      0.000000000000     0.168100000000     0.616700000000     0          
H485     H      0.000000000000     0.175700000000     0.588600000000     0          
C486     C      0.000000000000     0.198100000000     0.646600000000     0          
H487     H      0.000000000000     0.226200000000     0.638900000000     0          
O488     O      0.000000000000     0.608980000000     0.058700000000     0          
C489     C      0.000000000000     0.668100000000     0.116700000000     0          
H490     H      0.000000000000     0.675700000000     0.088600000000     0          
C491     C      0.000000000000     0.698100000000     0.146600000000     0          
H492     H      0.000000000000     0.726200000000     0.138900000000     0          
O493     O      0.500000000000     0.108980000000     0.941300000000     0          
C494     C      0.500000000000     0.168100000000     0.883300000000     0          
H495     H      0.500000000000     0.175700000000     0.911400000000     0          
C496     C      0.500000000000     0.198100000000     0.853400000000     0          
H497     H      0.500000000000     0.226200000000     0.861100000000     0          
O498     O      0.500000000000     0.608980000000     0.441300000000     0          
C499     C      0.500000000000     0.668100000000     0.383300000000     0          
H500     H      0.500000000000     0.675700000000     0.411400000000     0          
C501     C      0.500000000000     0.698100000000     0.353400000000     0          
H502     H      0.500000000000     0.726200000000     0.361100000000     0          
O503     O      0.000000000000     0.108980000000     0.441300000000     0          
C504     C      0.000000000000     0.168100000000     0.383300000000     0          
H505     H      0.000000000000     0.175700000000     0.411400000000     0          
C506     C      0.000000000000     0.198100000000     0.353400000000     0          
H507     H      0.000000000000     0.226200000000     0.361100000000     0          
O508     O      0.000000000000     0.608980000000     0.941300000000     0          
C509     C      0.000000000000     0.668100000000     0.883300000000     0          
H510     H      0.000000000000     0.675700000000     0.911400000000     0          
C511     C      0.000000000000     0.698100000000     0.853400000000     0          
H512     H      0.000000000000     0.726200000000     0.861100000000     0          
O513     O      0.500000000000     0.891020000000     0.058700000000     0          
C514     C      0.500000000000     0.831900000000     0.116700000000     0          
H515     H      0.500000000000     0.824300000000     0.088600000000     0          
C516     C      0.500000000000     0.801900000000     0.146600000000     0          
H517     H      0.500000000000     0.773800000000     0.138900000000     0          
O518     O      0.500000000000     0.391020000000     0.558700000000     0          
C519     C      0.500000000000     0.331900000000     0.616700000000     0          
H520     H      0.500000000000     0.324300000000     0.588600000000     0          
C521     C      0.500000000000     0.301900000000     0.646600000000     0          
H522     H      0.500000000000     0.273800000000     0.638900000000     0          
O523     O      0.000000000000     0.891020000000     0.558700000000     0          
C524     C      0.000000000000     0.831900000000     0.616700000000     0          
H525     H      0.000000000000     0.824300000000     0.588600000000     0          
C526     C      0.000000000000     0.801900000000     0.646600000000     0          
H527     H      0.000000000000     0.773800000000     0.638900000000     0          
O528     O      0.000000000000     0.391020000000     0.058700000000     0          
C529     C      0.000000000000     0.331900000000     0.116700000000     0          
H530     H      0.000000000000     0.324300000000     0.088600000000     0          
C531     C      0.000000000000     0.301900000000     0.146600000000     0          
H532     H      0.000000000000     0.273800000000     0.138900000000     0          
O533     O      0.500000000000     0.891020000000     0.941300000000     0          
C534     C      0.500000000000     0.831900000000     0.883300000000     0          
H535     H      0.500000000000     0.824300000000     0.911400000000     0          
C536     C      0.500000000000     0.801900000000     0.853400000000     0          
H537     H      0.500000000000     0.773800000000     0.861100000000     0          
O538     O      0.500000000000     0.391020000000     0.441300000000     0          
C539     C      0.500000000000     0.331900000000     0.383300000000     0          
H540     H      0.500000000000     0.324300000000     0.411400000000     0          
C541     C      0.500000000000     0.301900000000     0.353400000000     0          
H542     H      0.500000000000     0.273800000000     0.361100000000     0          
O543     O      0.000000000000     0.891020000000     0.441300000000     0          
C544     C      0.000000000000     0.831900000000     0.383300000000     0          
H545     H      0.000000000000     0.824300000000     0.411400000000     0          
C546     C      0.000000000000     0.801900000000     0.353400000000     0          
H547     H      0.000000000000     0.773800000000     0.361100000000     0          
O548     O      0.000000000000     0.391020000000     0.941300000000     0          
C549     C      0.000000000000     0.331900000000     0.883300000000     0          
H550     H      0.000000000000     0.324300000000     0.911400000000     0          
C551     C      0.000000000000     0.301900000000     0.853400000000     0          
H552     H      0.000000000000     0.273800000000     0.861100000000     0          
O553     O      0.108980000000     0.941300000000     0.500000000000     0          
C554     C      0.168100000000     0.883300000000     0.500000000000     0          
H555     H      0.175700000000     0.911400000000     0.500000000000     0          
C556     C      0.198100000000     0.853400000000     0.500000000000     0          
H557     H      0.226200000000     0.861100000000     0.500000000000     0          
O558     O      0.108980000000     0.441300000000     0.000000000000     0          
C559     C      0.168100000000     0.383300000000     0.000000000000     0          
H560     H      0.175700000000     0.411400000000     0.000000000000     0          
C561     C      0.198100000000     0.353400000000     0.000000000000     0          
H562     H      0.226200000000     0.361100000000     0.000000000000     0          
O563     O      0.608980000000     0.941300000000     0.000000000000     0          
C564     C      0.668100000000     0.883300000000     0.000000000000     0          
H565     H      0.675700000000     0.911400000000     0.000000000000     0          
C566     C      0.698100000000     0.853400000000     0.000000000000     0          
H567     H      0.726200000000     0.861100000000     0.000000000000     0          
O568     O      0.608980000000     0.441300000000     0.500000000000     0          
C569     C      0.668100000000     0.383300000000     0.500000000000     0          
H570     H      0.675700000000     0.411400000000     0.500000000000     0          
C571     C      0.698100000000     0.353400000000     0.500000000000     0          
H572     H      0.726200000000     0.361100000000     0.500000000000     0          
O573     O      0.108980000000     0.058700000000     0.500000000000     0          
C574     C      0.168100000000     0.116700000000     0.500000000000     0          
H575     H      0.175700000000     0.088600000000     0.500000000000     0          
C576     C      0.198100000000     0.146600000000     0.500000000000     0          
H577     H      0.226200000000     0.138900000000     0.500000000000     0          
O578     O      0.108980000000     0.558700000000     0.000000000000     0          
C579     C      0.168100000000     0.616700000000     0.000000000000     0          
H580     H      0.175700000000     0.588600000000     0.000000000000     0          
C581     C      0.198100000000     0.646600000000     0.000000000000     0          
H582     H      0.226200000000     0.638900000000     0.000000000000     0          
O583     O      0.608980000000     0.058700000000     0.000000000000     0          
C584     C      0.668100000000     0.116700000000     0.000000000000     0          
H585     H      0.675700000000     0.088600000000     0.000000000000     0          
C586     C      0.698100000000     0.146600000000     0.000000000000     0          
H587     H      0.726200000000     0.138900000000     0.000000000000     0          
O588     O      0.608980000000     0.558700000000     0.500000000000     0          
C589     C      0.668100000000     0.616700000000     0.500000000000     0          
H590     H      0.675700000000     0.588600000000     0.500000000000     0          
C591     C      0.698100000000     0.646600000000     0.500000000000     0          
H592     H      0.726200000000     0.638900000000     0.500000000000     0          
O593     O      0.891020000000     0.941300000000     0.500000000000     0          
C594     C      0.831900000000     0.883300000000     0.500000000000     0          
H595     H      0.824300000000     0.911400000000     0.500000000000     0          
C596     C      0.801900000000     0.853400000000     0.500000000000     0          
H597     H      0.773800000000     0.861100000000     0.500000000000     0          
O598     O      0.891020000000     0.441300000000     0.000000000000     0          
C599     C      0.831900000000     0.383300000000     0.000000000000     0          
H600     H      0.824300000000     0.411400000000     0.000000000000     0          
C601     C      0.801900000000     0.353400000000     0.000000000000     0          
H602     H      0.773800000000     0.361100000000     0.000000000000     0          
O603     O      0.391020000000     0.941300000000     0.000000000000     0          
C604     C      0.331900000000     0.883300000000     0.000000000000     0          
H605     H      0.324300000000     0.911400000000     0.000000000000     0          
C606     C      0.301900000000     0.853400000000     0.000000000000     0          
H607     H      0.273800000000     0.861100000000     0.000000000000     0          
O608     O      0.391020000000     0.441300000000     0.500000000000     0          
C609     C      0.331900000000     0.383300000000     0.500000000000     0          
H610     H      0.324300000000     0.411400000000     0.500000000000     0          
C611     C      0.301900000000     0.353400000000     0.500000000000     0          
H612     H      0.273800000000     0.361100000000     0.500000000000     0          
O613     O      0.891020000000     0.058700000000     0.500000000000     0          
C614     C      0.831900000000     0.116700000000     0.500000000000     0          
H615     H      0.824300000000     0.088600000000     0.500000000000     0          
C616     C      0.801900000000     0.146600000000     0.500000000000     0          
H617     H      0.773800000000     0.138900000000     0.500000000000     0          
O618     O      0.891020000000     0.558700000000     0.000000000000     0          
C619     C      0.831900000000     0.616700000000     0.000000000000     0          
H620     H      0.824300000000     0.588600000000     0.000000000000     0          
C621     C      0.801900000000     0.646600000000     0.000000000000     0          
H622     H      0.773800000000     0.638900000000     0.000000000000     0          
O623     O      0.391020000000     0.058700000000     0.000000000000     0          
C624     C      0.331900000000     0.116700000000     0.000000000000     0          
H625     H      0.324300000000     0.088600000000     0.000000000000     0          
C626     C      0.301900000000     0.146600000000     0.000000000000     0          
H627     H      0.273800000000     0.138900000000     0.000000000000     0          
O628     O      0.391020000000     0.558700000000     0.500000000000     0          
C629     C      0.331900000000     0.616700000000     0.500000000000     0          
H630     H      0.324300000000     0.588600000000     0.500000000000     0          
C631     C      0.301900000000     0.646600000000     0.500000000000     0          
H632     H      0.273800000000     0.638900000000     0.500000000000     0          
C633     C      0.500000000000     0.904200000000     0.095800000000     0          
C634     C      0.500000000000     0.872700000000     0.127300000000     0          
C635     C      0.500000000000     0.812400000000     0.187600000000     0          
C636     C      0.500000000000     0.780900000000     0.219100000000     0          
C637     C      0.500000000000     0.404200000000     0.595800000000     0          
C638     C      0.500000000000     0.372700000000     0.627300000000     0          
C639     C      0.500000000000     0.312400000000     0.687600000000     0          
C640     C      0.500000000000     0.280900000000     0.719100000000     0          
C641     C      0.000000000000     0.904200000000     0.595800000000     0          
C642     C      0.000000000000     0.872700000000     0.627300000000     0          
C643     C      0.000000000000     0.812400000000     0.687600000000     0          
C644     C      0.000000000000     0.780900000000     0.719100000000     0          
C645     C      0.000000000000     0.404200000000     0.095800000000     0          
C646     C      0.000000000000     0.372700000000     0.127300000000     0          
C647     C      0.000000000000     0.312400000000     0.187600000000     0          
C648     C      0.000000000000     0.280900000000     0.219100000000     0          
C649     C      0.500000000000     0.095800000000     0.095800000000     0          
C650     C      0.500000000000     0.127300000000     0.127300000000     0          
C651     C      0.500000000000     0.187600000000     0.187600000000     0          
C652     C      0.500000000000     0.219100000000     0.219100000000     0          
C653     C      0.500000000000     0.595800000000     0.595800000000     0          
C654     C      0.500000000000     0.627300000000     0.627300000000     0          
C655     C      0.500000000000     0.687600000000     0.687600000000     0          
C656     C      0.500000000000     0.719100000000     0.719100000000     0          
C657     C      0.000000000000     0.095800000000     0.595800000000     0          
C658     C      0.000000000000     0.127300000000     0.627300000000     0          
C659     C      0.000000000000     0.187600000000     0.687600000000     0          
C660     C      0.000000000000     0.219100000000     0.719100000000     0          
C661     C      0.000000000000     0.595800000000     0.095800000000     0          
C662     C      0.000000000000     0.627300000000     0.127300000000     0          
C663     C      0.000000000000     0.687600000000     0.187600000000     0          
C664     C      0.000000000000     0.719100000000     0.219100000000     0          
C665     C      0.500000000000     0.904200000000     0.904200000000     0          
C666     C      0.500000000000     0.872700000000     0.872700000000     0          
C667     C      0.500000000000     0.812400000000     0.812400000000     0          
C668     C      0.500000000000     0.780900000000     0.780900000000     0          
C669     C      0.500000000000     0.404200000000     0.404200000000     0          
C670     C      0.500000000000     0.372700000000     0.372700000000     0          
C671     C      0.500000000000     0.312400000000     0.312400000000     0          
C672     C      0.500000000000     0.280900000000     0.280900000000     0          
C673     C      0.000000000000     0.904200000000     0.404200000000     0          
C674     C      0.000000000000     0.872700000000     0.372700000000     0          
C675     C      0.000000000000     0.812400000000     0.312400000000     0          
C676     C      0.000000000000     0.780900000000     0.280900000000     0          
C677     C      0.000000000000     0.404200000000     0.904200000000     0          
C678     C      0.000000000000     0.372700000000     0.872700000000     0          
C679     C      0.000000000000     0.312400000000     0.812400000000     0          
C680     C      0.000000000000     0.280900000000     0.780900000000     0          
C681     C      0.500000000000     0.095800000000     0.904200000000     0          
C682     C      0.500000000000     0.127300000000     0.872700000000     0          
C683     C      0.500000000000     0.187600000000     0.812400000000     0          
C684     C      0.500000000000     0.219100000000     0.780900000000     0          
C685     C      0.500000000000     0.595800000000     0.404200000000     0          
C686     C      0.500000000000     0.627300000000     0.372700000000     0          
C687     C      0.500000000000     0.687600000000     0.312400000000     0          
C688     C      0.500000000000     0.719100000000     0.280900000000     0          
C689     C      0.000000000000     0.095800000000     0.404200000000     0          
C690     C      0.000000000000     0.127300000000     0.372700000000     0          
C691     C      0.000000000000     0.187600000000     0.312400000000     0          
C692     C      0.000000000000     0.219100000000     0.280900000000     0          
C693     C      0.000000000000     0.595800000000     0.904200000000     0          
C694     C      0.000000000000     0.627300000000     0.872700000000     0          
C695     C      0.000000000000     0.687600000000     0.812400000000     0          
C696     C      0.000000000000     0.719100000000     0.780900000000     0          
C697     C      0.095800000000     0.500000000000     0.904200000000     0          
C698     C      0.127300000000     0.500000000000     0.872700000000     0          
C699     C      0.187600000000     0.500000000000     0.812400000000     0          
C700     C      0.219100000000     0.500000000000     0.780900000000     0          
C701     C      0.095800000000     0.000000000000     0.404200000000     0          
C702     C      0.127300000000     0.000000000000     0.372700000000     0          
C703     C      0.187600000000     0.000000000000     0.312400000000     0          
C704     C      0.219100000000     0.000000000000     0.280900000000     0          
C705     C      0.595800000000     0.500000000000     0.404200000000     0          
C706     C      0.627300000000     0.500000000000     0.372700000000     0          
C707     C      0.687600000000     0.500000000000     0.312400000000     0          
C708     C      0.719100000000     0.500000000000     0.280900000000     0          
C709     C      0.595800000000     0.000000000000     0.904200000000     0          
C710     C      0.627300000000     0.000000000000     0.872700000000     0          
C711     C      0.687600000000     0.000000000000     0.812400000000     0          
C712     C      0.719100000000     0.000000000000     0.780900000000     0          
C713     C      0.095800000000     0.500000000000     0.095800000000     0          
C714     C      0.127300000000     0.500000000000     0.127300000000     0          
C715     C      0.187600000000     0.500000000000     0.187600000000     0          
C716     C      0.219100000000     0.500000000000     0.219100000000     0          
C717     C      0.095800000000     0.000000000000     0.595800000000     0          
C718     C      0.127300000000     0.000000000000     0.627300000000     0          
C719     C      0.187600000000     0.000000000000     0.687600000000     0          
C720     C      0.219100000000     0.000000000000     0.719100000000     0          
C721     C      0.595800000000     0.500000000000     0.595800000000     0          
C722     C      0.627300000000     0.500000000000     0.627300000000     0          
C723     C      0.687600000000     0.500000000000     0.687600000000     0          
C724     C      0.719100000000     0.500000000000     0.719100000000     0          
C725     C      0.595800000000     0.000000000000     0.095800000000     0          
C726     C      0.627300000000     0.000000000000     0.127300000000     0          
C727     C      0.687600000000     0.000000000000     0.187600000000     0          
C728     C      0.719100000000     0.000000000000     0.219100000000     0          
C729     C      0.904200000000     0.500000000000     0.904200000000     0          
C730     C      0.872700000000     0.500000000000     0.872700000000     0          
C731     C      0.812400000000     0.500000000000     0.812400000000     0          
C732     C      0.780900000000     0.500000000000     0.780900000000     0          
C733     C      0.904200000000     0.000000000000     0.404200000000     0          
C734     C      0.872700000000     0.000000000000     0.372700000000     0          
C735     C      0.812400000000     0.000000000000     0.312400000000     0          
C736     C      0.780900000000     0.000000000000     0.280900000000     0          
C737     C      0.404200000000     0.500000000000     0.404200000000     0          
C738     C      0.372700000000     0.500000000000     0.372700000000     0          
C739     C      0.312400000000     0.500000000000     0.312400000000     0          
C740     C      0.280900000000     0.500000000000     0.280900000000     0          
C741     C      0.404200000000     0.000000000000     0.904200000000     0          
C742     C      0.372700000000     0.000000000000     0.872700000000     0          
C743     C      0.312400000000     0.000000000000     0.812400000000     0          
C744     C      0.280900000000     0.000000000000     0.780900000000     0          
C745     C      0.904200000000     0.500000000000     0.095800000000     0          
C746     C      0.872700000000     0.500000000000     0.127300000000     0          
C747     C      0.812400000000     0.500000000000     0.187600000000     0          
C748     C      0.780900000000     0.500000000000     0.219100000000     0          
C749     C      0.904200000000     0.000000000000     0.595800000000     0          
C750     C      0.872700000000     0.000000000000     0.627300000000     0          
C751     C      0.812400000000     0.000000000000     0.687600000000     0          
C752     C      0.780900000000     0.000000000000     0.719100000000     0          
C753     C      0.404200000000     0.500000000000     0.595800000000     0          
C754     C      0.372700000000     0.500000000000     0.627300000000     0          
C755     C      0.312400000000     0.500000000000     0.687600000000     0          
C756     C      0.280900000000     0.500000000000     0.719100000000     0          
C757     C      0.404200000000     0.000000000000     0.095800000000     0          
C758     C      0.372700000000     0.000000000000     0.127300000000     0          
C759     C      0.312400000000     0.000000000000     0.187600000000     0          
C760     C      0.280900000000     0.000000000000     0.219100000000     0          
C761     C      0.904200000000     0.095800000000     0.500000000000     0          
C762     C      0.872700000000     0.127300000000     0.500000000000     0          
C763     C      0.812400000000     0.187600000000     0.500000000000     0          
C764     C      0.780900000000     0.219100000000     0.500000000000     0          
C765     C      0.904200000000     0.595800000000     0.000000000000     0          
C766     C      0.872700000000     0.627300000000     0.000000000000     0          
C767     C      0.812400000000     0.687600000000     0.000000000000     0          
C768     C      0.780900000000     0.719100000000     0.000000000000     0          
C769     C      0.404200000000     0.095800000000     0.000000000000     0          
C770     C      0.372700000000     0.127300000000     0.000000000000     0          
C771     C      0.312400000000     0.187600000000     0.000000000000     0          
C772     C      0.280900000000     0.219100000000     0.000000000000     0          
C773     C      0.404200000000     0.595800000000     0.500000000000     0          
C774     C      0.372700000000     0.627300000000     0.500000000000     0          
C775     C      0.312400000000     0.687600000000     0.500000000000     0          
C776     C      0.280900000000     0.719100000000     0.500000000000     0          
C777     C      0.095800000000     0.095800000000     0.500000000000     0          
C778     C      0.127300000000     0.127300000000     0.500000000000     0          
C779     C      0.187600000000     0.187600000000     0.500000000000     0          
C780     C      0.219100000000     0.219100000000     0.500000000000     0          
C781     C      0.095800000000     0.595800000000     0.000000000000     0          
C782     C      0.127300000000     0.627300000000     0.000000000000     0          
C783     C      0.187600000000     0.687600000000     0.000000000000     0          
C784     C      0.219100000000     0.719100000000     0.000000000000     0          
C785     C      0.595800000000     0.095800000000     0.000000000000     0          
C786     C      0.627300000000     0.127300000000     0.000000000000     0          
C787     C      0.687600000000     0.187600000000     0.000000000000     0          
C788     C      0.719100000000     0.219100000000     0.000000000000     0          
C789     C      0.595800000000     0.595800000000     0.500000000000     0          
C790     C      0.627300000000     0.627300000000     0.500000000000     0          
C791     C      0.687600000000     0.687600000000     0.500000000000     0          
C792     C      0.719100000000     0.719100000000     0.500000000000     0          
C793     C      0.904200000000     0.904200000000     0.500000000000     0          
C794     C      0.872700000000     0.872700000000     0.500000000000     0          
C795     C      0.812400000000     0.812400000000     0.500000000000     0          
C796     C      0.780900000000     0.780900000000     0.500000000000     0          
C797     C      0.904200000000     0.404200000000     0.000000000000     0          
C798     C      0.872700000000     0.372700000000     0.000000000000     0          
C799     C      0.812400000000     0.312400000000     0.000000000000     0          
C800     C      0.780900000000     0.280900000000     0.000000000000     0          
C801     C      0.404200000000     0.904200000000     0.000000000000     0          
C802     C      0.372700000000     0.872700000000     0.000000000000     0          
C803     C      0.312400000000     0.812400000000     0.000000000000     0          
C804     C      0.280900000000     0.780900000000     0.000000000000     0          
C805     C      0.404200000000     0.404200000000     0.500000000000     0          
C806     C      0.372700000000     0.372700000000     0.500000000000     0          
C807     C      0.312400000000     0.312400000000     0.500000000000     0          
C808     C      0.280900000000     0.280900000000     0.500000000000     0          
C809     C      0.095800000000     0.904200000000     0.500000000000     0          
C810     C      0.127300000000     0.872700000000     0.500000000000     0          
C811     C      0.187600000000     0.812400000000     0.500000000000     0          
C812     C      0.219100000000     0.780900000000     0.500000000000     0          
C813     C      0.095800000000     0.404200000000     0.000000000000     0          
C814     C      0.127300000000     0.372700000000     0.000000000000     0          
C815     C      0.187600000000     0.312400000000     0.000000000000     0          
C816     C      0.219100000000     0.280900000000     0.000000000000     0          
C817     C      0.595800000000     0.904200000000     0.000000000000     0          
C818     C      0.627300000000     0.872700000000     0.000000000000     0          
C819     C      0.687600000000     0.812400000000     0.000000000000     0          
C820     C      0.719100000000     0.780900000000     0.000000000000     0          
C821     C      0.595800000000     0.404200000000     0.500000000000     0          
C822     C      0.627300000000     0.372700000000     0.500000000000     0          
C823     C      0.687600000000     0.312400000000     0.500000000000     0          
C824     C      0.719100000000     0.280900000000     0.500000000000     0          
C825     C      0.463500000000     0.765120000000     0.234880000000     0          
C826     C      0.463500000000     0.265120000000     0.734880000000     0          
C827     C      0.963500000000     0.765120000000     0.734880000000     0          
C828     C      0.963500000000     0.265120000000     0.234880000000     0          
C829     C      0.536500000000     0.234880000000     0.234880000000     0          
C830     C      0.536500000000     0.734880000000     0.734880000000     0          
C831     C      0.036500000000     0.234880000000     0.734880000000     0          
C832     C      0.036500000000     0.734880000000     0.234880000000     0          
C833     C      0.536500000000     0.765120000000     0.765120000000     0          
C834     C      0.536500000000     0.265120000000     0.265120000000     0          
C835     C      0.036500000000     0.765120000000     0.265120000000     0          
C836     C      0.036500000000     0.265120000000     0.765120000000     0          
C837     C      0.463500000000     0.234880000000     0.765120000000     0          
C838     C      0.463500000000     0.734880000000     0.265120000000     0          
C839     C      0.963500000000     0.234880000000     0.265120000000     0          
C840     C      0.963500000000     0.734880000000     0.765120000000     0          
C841     C      0.234880000000     0.463500000000     0.765120000000     0          
C842     C      0.234880000000     0.963500000000     0.265120000000     0          
C843     C      0.734880000000     0.463500000000     0.265120000000     0          
C844     C      0.734880000000     0.963500000000     0.765120000000     0          
C845     C      0.234880000000     0.536500000000     0.234880000000     0          
C846     C      0.234880000000     0.036500000000     0.734880000000     0          
C847     C      0.734880000000     0.536500000000     0.734880000000     0          
C848     C      0.734880000000     0.036500000000     0.234880000000     0          
C849     C      0.765120000000     0.536500000000     0.765120000000     0          
C850     C      0.765120000000     0.036500000000     0.265120000000     0          
C851     C      0.265120000000     0.536500000000     0.265120000000     0          
C852     C      0.265120000000     0.036500000000     0.765120000000     0          
C853     C      0.765120000000     0.463500000000     0.234880000000     0          
C854     C      0.765120000000     0.963500000000     0.734880000000     0          
C855     C      0.265120000000     0.463500000000     0.734880000000     0          
C856     C      0.265120000000     0.963500000000     0.234880000000     0          
C857     C      0.765120000000     0.234880000000     0.463500000000     0          
C858     C      0.765120000000     0.734880000000     0.963500000000     0          
C859     C      0.265120000000     0.234880000000     0.963500000000     0          
C860     C      0.265120000000     0.734880000000     0.463500000000     0          
C861     C      0.234880000000     0.234880000000     0.536500000000     0          
C862     C      0.234880000000     0.734880000000     0.036500000000     0          
C863     C      0.734880000000     0.234880000000     0.036500000000     0          
C864     C      0.734880000000     0.734880000000     0.536500000000     0          
C865     C      0.765120000000     0.765120000000     0.536500000000     0          
C866     C      0.765120000000     0.265120000000     0.036500000000     0          
C867     C      0.265120000000     0.765120000000     0.036500000000     0          
C868     C      0.265120000000     0.265120000000     0.536500000000     0          
C869     C      0.234880000000     0.765120000000     0.463500000000     0          
C870     C      0.234880000000     0.265120000000     0.963500000000     0          
C871     C      0.734880000000     0.765120000000     0.963500000000     0          
C872     C      0.734880000000     0.265120000000     0.463500000000     0          
C873     C      0.765120000000     0.463500000000     0.765120000000     0          
C874     C      0.765120000000     0.963500000000     0.265120000000     0          
C875     C      0.265120000000     0.463500000000     0.265120000000     0          
C876     C      0.265120000000     0.963500000000     0.765120000000     0          
C877     C      0.234880000000     0.536500000000     0.765120000000     0          
C878     C      0.234880000000     0.036500000000     0.265120000000     0          
C879     C      0.734880000000     0.536500000000     0.265120000000     0          
C880     C      0.734880000000     0.036500000000     0.765120000000     0          
C881     C      0.765120000000     0.536500000000     0.234880000000     0          
C882     C      0.765120000000     0.036500000000     0.734880000000     0          
C883     C      0.265120000000     0.536500000000     0.734880000000     0          
C884     C      0.265120000000     0.036500000000     0.234880000000     0          
C885     C      0.234880000000     0.463500000000     0.234880000000     0          
C886     C      0.234880000000     0.963500000000     0.734880000000     0          
C887     C      0.734880000000     0.463500000000     0.734880000000     0          
C888     C      0.734880000000     0.963500000000     0.234880000000     0          
C889     C      0.463500000000     0.234880000000     0.234880000000     0          
C890     C      0.463500000000     0.734880000000     0.734880000000     0          
C891     C      0.963500000000     0.234880000000     0.734880000000     0          
C892     C      0.963500000000     0.734880000000     0.234880000000     0          
C893     C      0.536500000000     0.234880000000     0.765120000000     0          
C894     C      0.536500000000     0.734880000000     0.265120000000     0          
C895     C      0.036500000000     0.234880000000     0.265120000000     0          
C896     C      0.036500000000     0.734880000000     0.765120000000     0          
C897     C      0.536500000000     0.765120000000     0.234880000000     0          
C898     C      0.536500000000     0.265120000000     0.734880000000     0          
C899     C      0.036500000000     0.765120000000     0.734880000000     0          
C900     C      0.036500000000     0.265120000000     0.234880000000     0          
C901     C      0.463500000000     0.765120000000     0.765120000000     0          
C902     C      0.463500000000     0.265120000000     0.265120000000     0          
C903     C      0.963500000000     0.765120000000     0.265120000000     0          
C904     C      0.963500000000     0.265120000000     0.765120000000     0          
C905     C      0.234880000000     0.765120000000     0.536500000000     0          
C906     C      0.234880000000     0.265120000000     0.036500000000     0          
C907     C      0.734880000000     0.765120000000     0.036500000000     0          
C908     C      0.734880000000     0.265120000000     0.536500000000     0          
C909     C      0.234880000000     0.234880000000     0.463500000000     0          
C910     C      0.234880000000     0.734880000000     0.963500000000     0          
C911     C      0.734880000000     0.234880000000     0.963500000000     0          
C912     C      0.734880000000     0.734880000000     0.463500000000     0          
C913     C      0.765120000000     0.765120000000     0.463500000000     0          
C914     C      0.765120000000     0.265120000000     0.963500000000     0          
C915     C      0.265120000000     0.765120000000     0.963500000000     0          
C916     C      0.265120000000     0.265120000000     0.463500000000     0          
C917     C      0.765120000000     0.234880000000     0.536500000000     0          
C918     C      0.765120000000     0.734880000000     0.036500000000     0          
C919     C      0.265120000000     0.234880000000     0.036500000000     0          
C920     C      0.265120000000     0.734880000000     0.536500000000     0          
H921     H      0.776940000000     0.567220000000     0.776940000000     0          
H922     H      0.776940000000     0.432780000000     0.776940000000     0          
H923     H      0.723060000000     0.432780000000     0.723060000000     0          
H924     H      0.223060000000     0.567220000000     0.223060000000     0          
H925     H      0.276940000000     0.567220000000     0.276940000000     0          
H926     H      0.223060000000     0.432780000000     0.223060000000     0          
H927     H      0.776940000000     0.432780000000     0.223060000000     0          
H928     H      0.723060000000     0.567220000000     0.276940000000     0          
H929     H      0.776940000000     0.567220000000     0.223060000000     0          
H930     H      0.223060000000     0.432780000000     0.776940000000     0          
H931     H      0.276940000000     0.432780000000     0.723060000000     0          
H932     H      0.276940000000     0.567220000000     0.723060000000     0          
H933     H      0.567220000000     0.723060000000     0.723060000000     0          
H934     H      0.432780000000     0.723060000000     0.723060000000     0          
H935     H      0.432780000000     0.776940000000     0.776940000000     0          
H936     H      0.567220000000     0.223060000000     0.223060000000     0          
H937     H      0.567220000000     0.276940000000     0.276940000000     0          
H938     H      0.432780000000     0.223060000000     0.223060000000     0          
H939     H      0.432780000000     0.776940000000     0.223060000000     0          
H940     H      0.432780000000     0.276940000000     0.723060000000     0          
H941     H      0.432780000000     0.723060000000     0.276940000000     0          
H942     H      0.567220000000     0.223060000000     0.776940000000     0          
H943     H      0.567220000000     0.723060000000     0.276940000000     0          
H944     H      0.567220000000     0.276940000000     0.723060000000     0          
H945     H      0.276940000000     0.723060000000     0.432780000000     0          
H946     H      0.223060000000     0.776940000000     0.432780000000     0          
H947     H      0.276940000000     0.723060000000     0.567220000000     0          
H948     H      0.723060000000     0.276940000000     0.432780000000     0          
H949     H      0.723060000000     0.276940000000     0.567220000000     0          
H950     H      0.776940000000     0.223060000000     0.567220000000     0          
H951     H      0.223060000000     0.223060000000     0.567220000000     0          
H952     H      0.276940000000     0.276940000000     0.567220000000     0          
H953     H      0.223060000000     0.223060000000     0.432780000000     0          
H954     H      0.776940000000     0.776940000000     0.567220000000     0          
H955     H      0.723060000000     0.723060000000     0.432780000000     0          
H956     H      0.776940000000     0.776940000000     0.432780000000     0          
H957     H      0.932780000000     0.223060000000     0.723060000000     0          
H958     H      0.932780000000     0.723060000000     0.223060000000     0          
H959     H      0.067220000000     0.223060000000     0.723060000000     0          
H960     H      0.067220000000     0.723060000000     0.223060000000     0          
H961     H      0.067220000000     0.776940000000     0.276940000000     0          
H962     H      0.067220000000     0.276940000000     0.776940000000     0          
H963     H      0.932780000000     0.776940000000     0.723060000000     0          
H964     H      0.932780000000     0.276940000000     0.223060000000     0          
H965     H      0.932780000000     0.223060000000     0.276940000000     0          
H966     H      0.932780000000     0.723060000000     0.776940000000     0          
H967     H      0.067220000000     0.776940000000     0.723060000000     0          
H968     H      0.067220000000     0.276940000000     0.223060000000     0          
H969     H      0.776940000000     0.932780000000     0.276940000000     0          
H970     H      0.276940000000     0.932780000000     0.776940000000     0          
H971     H      0.776940000000     0.067220000000     0.276940000000     0          
H972     H      0.276940000000     0.067220000000     0.776940000000     0          
H973     H      0.223060000000     0.067220000000     0.723060000000     0          
H974     H      0.723060000000     0.067220000000     0.223060000000     0          
H975     H      0.223060000000     0.932780000000     0.276940000000     0          
H976     H      0.723060000000     0.932780000000     0.776940000000     0          
H977     H      0.776940000000     0.932780000000     0.723060000000     0          
H978     H      0.276940000000     0.932780000000     0.223060000000     0          
H979     H      0.776940000000     0.067220000000     0.723060000000     0          
H980     H      0.276940000000     0.067220000000     0.223060000000     0          
H981     H      0.223060000000     0.276940000000     0.932780000000     0          
H982     H      0.723060000000     0.776940000000     0.932780000000     0          
H983     H      0.223060000000     0.276940000000     0.067220000000     0          
H984     H      0.723060000000     0.776940000000     0.067220000000     0          
H985     H      0.776940000000     0.723060000000     0.067220000000     0          
H986     H      0.276940000000     0.223060000000     0.067220000000     0          
H987     H      0.223060000000     0.723060000000     0.932780000000     0          
H988     H      0.723060000000     0.223060000000     0.932780000000     0          
H989     H      0.776940000000     0.276940000000     0.932780000000     0          
H990     H      0.276940000000     0.776940000000     0.932780000000     0          
H991     H      0.776940000000     0.276940000000     0.067220000000     0          
H992     H      0.276940000000     0.776940000000     0.067220000000     0          


