data_XIVTED

_audit_creation_method RASPA-1.0
_audit_creation_date 2020-11-2
_audit_author_name 'Rocio Bueno-Perez'

_cell_length_a    26.546
_cell_length_b    26.546
_cell_length_c    26.546
_cell_angle_alpha 90
_cell_angle_beta  90
_cell_angle_gamma 90
_cell_volume      18706.7

_symmetry_cell_setting          triclinic
_symmetry_space_group_name_Hall 'P 1'
_symmetry_space_group_name_H-M  'P 1'
_symmetry_Int_Tables_number     1

_symmetry_equiv_pos_as_xyz 'x,y,z'

loop_
_atom_site_label
_atom_site_type_symbol
_atom_site_fract_x
_atom_site_fract_y
_atom_site_fract_z
_atom_site_charge
O1       O      0.137200000000     0.929900000000     0.500000000000     0          
O2       O      0.070800000000     0.863300000000     0.500000000000     0          
C3       C      0.119100000000     0.883000000000     0.500000000000     0          
C4       C      0.157700000000     0.841200000000     0.500000000000     0          
N5       N      0.245600000000     0.819700000000     0.500000000000     0          
C6       C      0.209300000000     0.857100000000     0.500000000000     0          
H7       H      0.218000000000     0.891000000000     0.500000000000     0          
C8       C      0.143900000000     0.791600000000     0.500000000000     0          
H9       H      0.110000000000     0.782700000000     0.500000000000     0          
C10      C      0.180500000000     0.754800000000     0.500000000000     0          
H11      H      0.171500000000     0.721000000000     0.500000000000     0          
C12      C      0.229500000000     0.768400000000     0.500000000000     0          
O13      O      0.137200000000     0.429900000000     0.000000000000     0          
O14      O      0.070800000000     0.363300000000     0.000000000000     0          
C15      C      0.119100000000     0.383000000000     0.000000000000     0          
C16      C      0.157700000000     0.341200000000     0.000000000000     0          
N17      N      0.245600000000     0.319700000000     0.000000000000     0          
C18      C      0.209300000000     0.357100000000     0.000000000000     0          
H19      H      0.218000000000     0.391000000000     0.000000000000     0          
C20      C      0.143900000000     0.291600000000     0.000000000000     0          
H21      H      0.110000000000     0.282700000000     0.000000000000     0          
C22      C      0.180500000000     0.254800000000     0.000000000000     0          
H23      H      0.171500000000     0.221000000000     0.000000000000     0          
C24      C      0.229500000000     0.268400000000     0.000000000000     0          
O25      O      0.637200000000     0.929900000000     0.000000000000     0          
O26      O      0.570800000000     0.863300000000     0.000000000000     0          
C27      C      0.619100000000     0.883000000000     0.000000000000     0          
C28      C      0.657700000000     0.841200000000     0.000000000000     0          
N29      N      0.745600000000     0.819700000000     0.000000000000     0          
C30      C      0.709300000000     0.857100000000     0.000000000000     0          
H31      H      0.718000000000     0.891000000000     0.000000000000     0          
C32      C      0.643900000000     0.791600000000     0.000000000000     0          
H33      H      0.610000000000     0.782700000000     0.000000000000     0          
C34      C      0.680500000000     0.754800000000     0.000000000000     0          
H35      H      0.671500000000     0.721000000000     0.000000000000     0          
C36      C      0.729500000000     0.768400000000     0.000000000000     0          
O37      O      0.637200000000     0.429900000000     0.500000000000     0          
O38      O      0.570800000000     0.363300000000     0.500000000000     0          
C39      C      0.619100000000     0.383000000000     0.500000000000     0          
C40      C      0.657700000000     0.341200000000     0.500000000000     0          
N41      N      0.745600000000     0.319700000000     0.500000000000     0          
C42      C      0.709300000000     0.357100000000     0.500000000000     0          
H43      H      0.718000000000     0.391000000000     0.500000000000     0          
C44      C      0.643900000000     0.291600000000     0.500000000000     0          
H45      H      0.610000000000     0.282700000000     0.500000000000     0          
C46      C      0.680500000000     0.254800000000     0.500000000000     0          
H47      H      0.671500000000     0.221000000000     0.500000000000     0          
C48      C      0.729500000000     0.268400000000     0.500000000000     0          
O49      O      0.862800000000     0.070100000000     0.500000000000     0          
O50      O      0.929200000000     0.136700000000     0.500000000000     0          
C51      C      0.880900000000     0.117000000000     0.500000000000     0          
C52      C      0.842300000000     0.158800000000     0.500000000000     0          
N53      N      0.754400000000     0.180300000000     0.500000000000     0          
C54      C      0.790700000000     0.142900000000     0.500000000000     0          
H55      H      0.782000000000     0.109000000000     0.500000000000     0          
C56      C      0.856100000000     0.208400000000     0.500000000000     0          
H57      H      0.890000000000     0.217300000000     0.500000000000     0          
C58      C      0.819500000000     0.245200000000     0.500000000000     0          
H59      H      0.828500000000     0.279000000000     0.500000000000     0          
C60      C      0.770500000000     0.231600000000     0.500000000000     0          
O61      O      0.862800000000     0.570100000000     0.000000000000     0          
O62      O      0.929200000000     0.636700000000     0.000000000000     0          
C63      C      0.880900000000     0.617000000000     0.000000000000     0          
C64      C      0.842300000000     0.658800000000     0.000000000000     0          
N65      N      0.754400000000     0.680300000000     0.000000000000     0          
C66      C      0.790700000000     0.642900000000     0.000000000000     0          
H67      H      0.782000000000     0.609000000000     0.000000000000     0          
C68      C      0.856100000000     0.708400000000     0.000000000000     0          
H69      H      0.890000000000     0.717300000000     0.000000000000     0          
C70      C      0.819500000000     0.745200000000     0.000000000000     0          
H71      H      0.828500000000     0.779000000000     0.000000000000     0          
C72      C      0.770500000000     0.731600000000     0.000000000000     0          
O73      O      0.362800000000     0.070100000000     0.000000000000     0          
O74      O      0.429200000000     0.136700000000     0.000000000000     0          
C75      C      0.380900000000     0.117000000000     0.000000000000     0          
C76      C      0.342300000000     0.158800000000     0.000000000000     0          
N77      N      0.254400000000     0.180300000000     0.000000000000     0          
C78      C      0.290700000000     0.142900000000     0.000000000000     0          
H79      H      0.282000000000     0.109000000000     0.000000000000     0          
C80      C      0.356100000000     0.208400000000     0.000000000000     0          
H81      H      0.390000000000     0.217300000000     0.000000000000     0          
C82      C      0.319500000000     0.245200000000     0.000000000000     0          
H83      H      0.328500000000     0.279000000000     0.000000000000     0          
C84      C      0.270500000000     0.231600000000     0.000000000000     0          
O85      O      0.362800000000     0.570100000000     0.500000000000     0          
O86      O      0.429200000000     0.636700000000     0.500000000000     0          
C87      C      0.380900000000     0.617000000000     0.500000000000     0          
C88      C      0.342300000000     0.658800000000     0.500000000000     0          
N89      N      0.254400000000     0.680300000000     0.500000000000     0          
C90      C      0.290700000000     0.642900000000     0.500000000000     0          
H91      H      0.282000000000     0.609000000000     0.500000000000     0          
C92      C      0.356100000000     0.708400000000     0.500000000000     0          
H93      H      0.390000000000     0.717300000000     0.500000000000     0          
C94      C      0.319500000000     0.745200000000     0.500000000000     0          
H95      H      0.328500000000     0.779000000000     0.500000000000     0          
C96      C      0.270500000000     0.731600000000     0.500000000000     0          
O97      O      0.862800000000     0.929900000000     0.500000000000     0          
O98      O      0.929200000000     0.863300000000     0.500000000000     0          
C99      C      0.880900000000     0.883000000000     0.500000000000     0          
C100     C      0.842300000000     0.841200000000     0.500000000000     0          
N101     N      0.754400000000     0.819700000000     0.500000000000     0          
C102     C      0.790700000000     0.857100000000     0.500000000000     0          
H103     H      0.782000000000     0.891000000000     0.500000000000     0          
C104     C      0.856100000000     0.791600000000     0.500000000000     0          
H105     H      0.890000000000     0.782700000000     0.500000000000     0          
C106     C      0.819500000000     0.754800000000     0.500000000000     0          
H107     H      0.828500000000     0.721000000000     0.500000000000     0          
C108     C      0.770500000000     0.768400000000     0.500000000000     0          
O109     O      0.862800000000     0.429900000000     0.000000000000     0          
O110     O      0.929200000000     0.363300000000     0.000000000000     0          
C111     C      0.880900000000     0.383000000000     0.000000000000     0          
C112     C      0.842300000000     0.341200000000     0.000000000000     0          
N113     N      0.754400000000     0.319700000000     0.000000000000     0          
C114     C      0.790700000000     0.357100000000     0.000000000000     0          
H115     H      0.782000000000     0.391000000000     0.000000000000     0          
C116     C      0.856100000000     0.291600000000     0.000000000000     0          
H117     H      0.890000000000     0.282700000000     0.000000000000     0          
C118     C      0.819500000000     0.254800000000     0.000000000000     0          
H119     H      0.828500000000     0.221000000000     0.000000000000     0          
C120     C      0.770500000000     0.268400000000     0.000000000000     0          
O121     O      0.362800000000     0.929900000000     0.000000000000     0          
O122     O      0.429200000000     0.863300000000     0.000000000000     0          
C123     C      0.380900000000     0.883000000000     0.000000000000     0          
C124     C      0.342300000000     0.841200000000     0.000000000000     0          
N125     N      0.254400000000     0.819700000000     0.000000000000     0          
C126     C      0.290700000000     0.857100000000     0.000000000000     0          
H127     H      0.282000000000     0.891000000000     0.000000000000     0          
C128     C      0.356100000000     0.791600000000     0.000000000000     0          
H129     H      0.390000000000     0.782700000000     0.000000000000     0          
C130     C      0.319500000000     0.754800000000     0.000000000000     0          
H131     H      0.328500000000     0.721000000000     0.000000000000     0          
C132     C      0.270500000000     0.768400000000     0.000000000000     0          
O133     O      0.362800000000     0.429900000000     0.500000000000     0          
O134     O      0.429200000000     0.363300000000     0.500000000000     0          
C135     C      0.380900000000     0.383000000000     0.500000000000     0          
C136     C      0.342300000000     0.341200000000     0.500000000000     0          
N137     N      0.254400000000     0.319700000000     0.500000000000     0          
C138     C      0.290700000000     0.357100000000     0.500000000000     0          
H139     H      0.282000000000     0.391000000000     0.500000000000     0          
C140     C      0.356100000000     0.291600000000     0.500000000000     0          
H141     H      0.390000000000     0.282700000000     0.500000000000     0          
C142     C      0.319500000000     0.254800000000     0.500000000000     0          
H143     H      0.328500000000     0.221000000000     0.500000000000     0          
C144     C      0.270500000000     0.268400000000     0.500000000000     0          
O145     O      0.137200000000     0.070100000000     0.500000000000     0          
O146     O      0.070800000000     0.136700000000     0.500000000000     0          
C147     C      0.119100000000     0.117000000000     0.500000000000     0          
C148     C      0.157700000000     0.158800000000     0.500000000000     0          
N149     N      0.245600000000     0.180300000000     0.500000000000     0          
C150     C      0.209300000000     0.142900000000     0.500000000000     0          
H151     H      0.218000000000     0.109000000000     0.500000000000     0          
C152     C      0.143900000000     0.208400000000     0.500000000000     0          
H153     H      0.110000000000     0.217300000000     0.500000000000     0          
C154     C      0.180500000000     0.245200000000     0.500000000000     0          
H155     H      0.171500000000     0.279000000000     0.500000000000     0          
C156     C      0.229500000000     0.231600000000     0.500000000000     0          
O157     O      0.137200000000     0.570100000000     0.000000000000     0          
O158     O      0.070800000000     0.636700000000     0.000000000000     0          
C159     C      0.119100000000     0.617000000000     0.000000000000     0          
C160     C      0.157700000000     0.658800000000     0.000000000000     0          
N161     N      0.245600000000     0.680300000000     0.000000000000     0          
C162     C      0.209300000000     0.642900000000     0.000000000000     0          
H163     H      0.218000000000     0.609000000000     0.000000000000     0          
C164     C      0.143900000000     0.708400000000     0.000000000000     0          
H165     H      0.110000000000     0.717300000000     0.000000000000     0          
C166     C      0.180500000000     0.745200000000     0.000000000000     0          
H167     H      0.171500000000     0.779000000000     0.000000000000     0          
C168     C      0.229500000000     0.731600000000     0.000000000000     0          
O169     O      0.637200000000     0.070100000000     0.000000000000     0          
O170     O      0.570800000000     0.136700000000     0.000000000000     0          
C171     C      0.619100000000     0.117000000000     0.000000000000     0          
C172     C      0.657700000000     0.158800000000     0.000000000000     0          
N173     N      0.745600000000     0.180300000000     0.000000000000     0          
C174     C      0.709300000000     0.142900000000     0.000000000000     0          
H175     H      0.718000000000     0.109000000000     0.000000000000     0          
C176     C      0.643900000000     0.208400000000     0.000000000000     0          
H177     H      0.610000000000     0.217300000000     0.000000000000     0          
C178     C      0.680500000000     0.245200000000     0.000000000000     0          
H179     H      0.671500000000     0.279000000000     0.000000000000     0          
C180     C      0.729500000000     0.231600000000     0.000000000000     0          
O181     O      0.637200000000     0.570100000000     0.500000000000     0          
O182     O      0.570800000000     0.636700000000     0.500000000000     0          
C183     C      0.619100000000     0.617000000000     0.500000000000     0          
C184     C      0.657700000000     0.658800000000     0.500000000000     0          
N185     N      0.745600000000     0.680300000000     0.500000000000     0          
C186     C      0.709300000000     0.642900000000     0.500000000000     0          
H187     H      0.718000000000     0.609000000000     0.500000000000     0          
C188     C      0.643900000000     0.708400000000     0.500000000000     0          
H189     H      0.610000000000     0.717300000000     0.500000000000     0          
C190     C      0.680500000000     0.745200000000     0.500000000000     0          
H191     H      0.671500000000     0.779000000000     0.500000000000     0          
C192     C      0.729500000000     0.731600000000     0.500000000000     0          
O193     O      0.500000000000     0.137200000000     0.929900000000     0          
O194     O      0.500000000000     0.070800000000     0.863300000000     0          
C195     C      0.500000000000     0.119100000000     0.883000000000     0          
C196     C      0.500000000000     0.157700000000     0.841200000000     0          
N197     N      0.500000000000     0.245600000000     0.819700000000     0          
C198     C      0.500000000000     0.209300000000     0.857100000000     0          
H199     H      0.500000000000     0.218000000000     0.891000000000     0          
C200     C      0.500000000000     0.143900000000     0.791600000000     0          
H201     H      0.500000000000     0.110000000000     0.782700000000     0          
C202     C      0.500000000000     0.180500000000     0.754800000000     0          
H203     H      0.500000000000     0.171500000000     0.721000000000     0          
C204     C      0.500000000000     0.229500000000     0.768400000000     0          
O205     O      0.500000000000     0.637200000000     0.429900000000     0          
O206     O      0.500000000000     0.570800000000     0.363300000000     0          
C207     C      0.500000000000     0.619100000000     0.383000000000     0          
C208     C      0.500000000000     0.657700000000     0.341200000000     0          
N209     N      0.500000000000     0.745600000000     0.319700000000     0          
C210     C      0.500000000000     0.709300000000     0.357100000000     0          
H211     H      0.500000000000     0.718000000000     0.391000000000     0          
C212     C      0.500000000000     0.643900000000     0.291600000000     0          
H213     H      0.500000000000     0.610000000000     0.282700000000     0          
C214     C      0.500000000000     0.680500000000     0.254800000000     0          
H215     H      0.500000000000     0.671500000000     0.221000000000     0          
C216     C      0.500000000000     0.729500000000     0.268400000000     0          
O217     O      0.000000000000     0.137200000000     0.429900000000     0          
O218     O      0.000000000000     0.070800000000     0.363300000000     0          
C219     C      0.000000000000     0.119100000000     0.383000000000     0          
C220     C      0.000000000000     0.157700000000     0.341200000000     0          
N221     N      0.000000000000     0.245600000000     0.319700000000     0          
C222     C      0.000000000000     0.209300000000     0.357100000000     0          
H223     H      0.000000000000     0.218000000000     0.391000000000     0          
C224     C      0.000000000000     0.143900000000     0.291600000000     0          
H225     H      0.000000000000     0.110000000000     0.282700000000     0          
C226     C      0.000000000000     0.180500000000     0.254800000000     0          
H227     H      0.000000000000     0.171500000000     0.221000000000     0          
C228     C      0.000000000000     0.229500000000     0.268400000000     0          
O229     O      0.000000000000     0.637200000000     0.929900000000     0          
O230     O      0.000000000000     0.570800000000     0.863300000000     0          
C231     C      0.000000000000     0.619100000000     0.883000000000     0          
C232     C      0.000000000000     0.657700000000     0.841200000000     0          
N233     N      0.000000000000     0.745600000000     0.819700000000     0          
C234     C      0.000000000000     0.709300000000     0.857100000000     0          
H235     H      0.000000000000     0.718000000000     0.891000000000     0          
C236     C      0.000000000000     0.643900000000     0.791600000000     0          
H237     H      0.000000000000     0.610000000000     0.782700000000     0          
C238     C      0.000000000000     0.680500000000     0.754800000000     0          
H239     H      0.000000000000     0.671500000000     0.721000000000     0          
C240     C      0.000000000000     0.729500000000     0.768400000000     0          
O241     O      0.500000000000     0.862800000000     0.070100000000     0          
O242     O      0.500000000000     0.929200000000     0.136700000000     0          
C243     C      0.500000000000     0.880900000000     0.117000000000     0          
C244     C      0.500000000000     0.842300000000     0.158800000000     0          
N245     N      0.500000000000     0.754400000000     0.180300000000     0          
C246     C      0.500000000000     0.790700000000     0.142900000000     0          
H247     H      0.500000000000     0.782000000000     0.109000000000     0          
C248     C      0.500000000000     0.856100000000     0.208400000000     0          
H249     H      0.500000000000     0.890000000000     0.217300000000     0          
C250     C      0.500000000000     0.819500000000     0.245200000000     0          
H251     H      0.500000000000     0.828500000000     0.279000000000     0          
C252     C      0.500000000000     0.770500000000     0.231600000000     0          
O253     O      0.500000000000     0.362800000000     0.570100000000     0          
O254     O      0.500000000000     0.429200000000     0.636700000000     0          
C255     C      0.500000000000     0.380900000000     0.617000000000     0          
C256     C      0.500000000000     0.342300000000     0.658800000000     0          
N257     N      0.500000000000     0.254400000000     0.680300000000     0          
C258     C      0.500000000000     0.290700000000     0.642900000000     0          
H259     H      0.500000000000     0.282000000000     0.609000000000     0          
C260     C      0.500000000000     0.356100000000     0.708400000000     0          
H261     H      0.500000000000     0.390000000000     0.717300000000     0          
C262     C      0.500000000000     0.319500000000     0.745200000000     0          
H263     H      0.500000000000     0.328500000000     0.779000000000     0          
C264     C      0.500000000000     0.270500000000     0.731600000000     0          
O265     O      0.000000000000     0.862800000000     0.570100000000     0          
O266     O      0.000000000000     0.929200000000     0.636700000000     0          
C267     C      0.000000000000     0.880900000000     0.617000000000     0          
C268     C      0.000000000000     0.842300000000     0.658800000000     0          
N269     N      0.000000000000     0.754400000000     0.680300000000     0          
C270     C      0.000000000000     0.790700000000     0.642900000000     0          
H271     H      0.000000000000     0.782000000000     0.609000000000     0          
C272     C      0.000000000000     0.856100000000     0.708400000000     0          
H273     H      0.000000000000     0.890000000000     0.717300000000     0          
C274     C      0.000000000000     0.819500000000     0.745200000000     0          
H275     H      0.000000000000     0.828500000000     0.779000000000     0          
C276     C      0.000000000000     0.770500000000     0.731600000000     0          
O277     O      0.000000000000     0.362800000000     0.070100000000     0          
O278     O      0.000000000000     0.429200000000     0.136700000000     0          
C279     C      0.000000000000     0.380900000000     0.117000000000     0          
C280     C      0.000000000000     0.342300000000     0.158800000000     0          
N281     N      0.000000000000     0.254400000000     0.180300000000     0          
C282     C      0.000000000000     0.290700000000     0.142900000000     0          
H283     H      0.000000000000     0.282000000000     0.109000000000     0          
C284     C      0.000000000000     0.356100000000     0.208400000000     0          
H285     H      0.000000000000     0.390000000000     0.217300000000     0          
C286     C      0.000000000000     0.319500000000     0.245200000000     0          
H287     H      0.000000000000     0.328500000000     0.279000000000     0          
C288     C      0.000000000000     0.270500000000     0.231600000000     0          
O289     O      0.500000000000     0.862800000000     0.929900000000     0          
O290     O      0.500000000000     0.929200000000     0.863300000000     0          
C291     C      0.500000000000     0.880900000000     0.883000000000     0          
C292     C      0.500000000000     0.842300000000     0.841200000000     0          
N293     N      0.500000000000     0.754400000000     0.819700000000     0          
C294     C      0.500000000000     0.790700000000     0.857100000000     0          
H295     H      0.500000000000     0.782000000000     0.891000000000     0          
C296     C      0.500000000000     0.856100000000     0.791600000000     0          
H297     H      0.500000000000     0.890000000000     0.782700000000     0          
C298     C      0.500000000000     0.819500000000     0.754800000000     0          
H299     H      0.500000000000     0.828500000000     0.721000000000     0          
C300     C      0.500000000000     0.770500000000     0.768400000000     0          
O301     O      0.500000000000     0.362800000000     0.429900000000     0          
O302     O      0.500000000000     0.429200000000     0.363300000000     0          
C303     C      0.500000000000     0.380900000000     0.383000000000     0          
C304     C      0.500000000000     0.342300000000     0.341200000000     0          
N305     N      0.500000000000     0.254400000000     0.319700000000     0          
C306     C      0.500000000000     0.290700000000     0.357100000000     0          
H307     H      0.500000000000     0.282000000000     0.391000000000     0          
C308     C      0.500000000000     0.356100000000     0.291600000000     0          
H309     H      0.500000000000     0.390000000000     0.282700000000     0          
C310     C      0.500000000000     0.319500000000     0.254800000000     0          
H311     H      0.500000000000     0.328500000000     0.221000000000     0          
C312     C      0.500000000000     0.270500000000     0.268400000000     0          
O313     O      0.000000000000     0.862800000000     0.429900000000     0          
O314     O      0.000000000000     0.929200000000     0.363300000000     0          
C315     C      0.000000000000     0.880900000000     0.383000000000     0          
C316     C      0.000000000000     0.842300000000     0.341200000000     0          
N317     N      0.000000000000     0.754400000000     0.319700000000     0          
C318     C      0.000000000000     0.790700000000     0.357100000000     0          
H319     H      0.000000000000     0.782000000000     0.391000000000     0          
C320     C      0.000000000000     0.856100000000     0.291600000000     0          
H321     H      0.000000000000     0.890000000000     0.282700000000     0          
C322     C      0.000000000000     0.819500000000     0.254800000000     0          
H323     H      0.000000000000     0.828500000000     0.221000000000     0          
C324     C      0.000000000000     0.770500000000     0.268400000000     0          
O325     O      0.000000000000     0.362800000000     0.929900000000     0          
O326     O      0.000000000000     0.429200000000     0.863300000000     0          
C327     C      0.000000000000     0.380900000000     0.883000000000     0          
C328     C      0.000000000000     0.342300000000     0.841200000000     0          
N329     N      0.000000000000     0.254400000000     0.819700000000     0          
C330     C      0.000000000000     0.290700000000     0.857100000000     0          
H331     H      0.000000000000     0.282000000000     0.891000000000     0          
C332     C      0.000000000000     0.356100000000     0.791600000000     0          
H333     H      0.000000000000     0.390000000000     0.782700000000     0          
C334     C      0.000000000000     0.319500000000     0.754800000000     0          
H335     H      0.000000000000     0.328500000000     0.721000000000     0          
C336     C      0.000000000000     0.270500000000     0.768400000000     0          
O337     O      0.500000000000     0.137200000000     0.070100000000     0          
O338     O      0.500000000000     0.070800000000     0.136700000000     0          
C339     C      0.500000000000     0.119100000000     0.117000000000     0          
C340     C      0.500000000000     0.157700000000     0.158800000000     0          
N341     N      0.500000000000     0.245600000000     0.180300000000     0          
C342     C      0.500000000000     0.209300000000     0.142900000000     0          
H343     H      0.500000000000     0.218000000000     0.109000000000     0          
C344     C      0.500000000000     0.143900000000     0.208400000000     0          
H345     H      0.500000000000     0.110000000000     0.217300000000     0          
C346     C      0.500000000000     0.180500000000     0.245200000000     0          
H347     H      0.500000000000     0.171500000000     0.279000000000     0          
C348     C      0.500000000000     0.229500000000     0.231600000000     0          
O349     O      0.500000000000     0.637200000000     0.570100000000     0          
O350     O      0.500000000000     0.570800000000     0.636700000000     0          
C351     C      0.500000000000     0.619100000000     0.617000000000     0          
C352     C      0.500000000000     0.657700000000     0.658800000000     0          
N353     N      0.500000000000     0.745600000000     0.680300000000     0          
C354     C      0.500000000000     0.709300000000     0.642900000000     0          
H355     H      0.500000000000     0.718000000000     0.609000000000     0          
C356     C      0.500000000000     0.643900000000     0.708400000000     0          
H357     H      0.500000000000     0.610000000000     0.717300000000     0          
C358     C      0.500000000000     0.680500000000     0.745200000000     0          
H359     H      0.500000000000     0.671500000000     0.779000000000     0          
C360     C      0.500000000000     0.729500000000     0.731600000000     0          
O361     O      0.000000000000     0.137200000000     0.570100000000     0          
O362     O      0.000000000000     0.070800000000     0.636700000000     0          
C363     C      0.000000000000     0.119100000000     0.617000000000     0          
C364     C      0.000000000000     0.157700000000     0.658800000000     0          
N365     N      0.000000000000     0.245600000000     0.680300000000     0          
C366     C      0.000000000000     0.209300000000     0.642900000000     0          
H367     H      0.000000000000     0.218000000000     0.609000000000     0          
C368     C      0.000000000000     0.143900000000     0.708400000000     0          
H369     H      0.000000000000     0.110000000000     0.717300000000     0          
C370     C      0.000000000000     0.180500000000     0.745200000000     0          
H371     H      0.000000000000     0.171500000000     0.779000000000     0          
C372     C      0.000000000000     0.229500000000     0.731600000000     0          
O373     O      0.000000000000     0.637200000000     0.070100000000     0          
O374     O      0.000000000000     0.570800000000     0.136700000000     0          
C375     C      0.000000000000     0.619100000000     0.117000000000     0          
C376     C      0.000000000000     0.657700000000     0.158800000000     0          
N377     N      0.000000000000     0.745600000000     0.180300000000     0          
C378     C      0.000000000000     0.709300000000     0.142900000000     0          
H379     H      0.000000000000     0.718000000000     0.109000000000     0          
C380     C      0.000000000000     0.643900000000     0.208400000000     0          
H381     H      0.000000000000     0.610000000000     0.217300000000     0          
C382     C      0.000000000000     0.680500000000     0.245200000000     0          
H383     H      0.000000000000     0.671500000000     0.279000000000     0          
C384     C      0.000000000000     0.729500000000     0.231600000000     0          
O385     O      0.929900000000     0.500000000000     0.137200000000     0          
O386     O      0.863300000000     0.500000000000     0.070800000000     0          
C387     C      0.883000000000     0.500000000000     0.119100000000     0          
C388     C      0.841200000000     0.500000000000     0.157700000000     0          
N389     N      0.819700000000     0.500000000000     0.245600000000     0          
C390     C      0.857100000000     0.500000000000     0.209300000000     0          
H391     H      0.891000000000     0.500000000000     0.218000000000     0          
C392     C      0.791600000000     0.500000000000     0.143900000000     0          
H393     H      0.782700000000     0.500000000000     0.110000000000     0          
C394     C      0.754800000000     0.500000000000     0.180500000000     0          
H395     H      0.721000000000     0.500000000000     0.171500000000     0          
C396     C      0.768400000000     0.500000000000     0.229500000000     0          
O397     O      0.929900000000     0.000000000000     0.637200000000     0          
O398     O      0.863300000000     0.000000000000     0.570800000000     0          
C399     C      0.883000000000     0.000000000000     0.619100000000     0          
C400     C      0.841200000000     0.000000000000     0.657700000000     0          
N401     N      0.819700000000     0.000000000000     0.745600000000     0          
C402     C      0.857100000000     0.000000000000     0.709300000000     0          
H403     H      0.891000000000     0.000000000000     0.718000000000     0          
C404     C      0.791600000000     0.000000000000     0.643900000000     0          
H405     H      0.782700000000     0.000000000000     0.610000000000     0          
C406     C      0.754800000000     0.000000000000     0.680500000000     0          
H407     H      0.721000000000     0.000000000000     0.671500000000     0          
C408     C      0.768400000000     0.000000000000     0.729500000000     0          
O409     O      0.429900000000     0.500000000000     0.637200000000     0          
O410     O      0.363300000000     0.500000000000     0.570800000000     0          
C411     C      0.383000000000     0.500000000000     0.619100000000     0          
C412     C      0.341200000000     0.500000000000     0.657700000000     0          
N413     N      0.319700000000     0.500000000000     0.745600000000     0          
C414     C      0.357100000000     0.500000000000     0.709300000000     0          
H415     H      0.391000000000     0.500000000000     0.718000000000     0          
C416     C      0.291600000000     0.500000000000     0.643900000000     0          
H417     H      0.282700000000     0.500000000000     0.610000000000     0          
C418     C      0.254800000000     0.500000000000     0.680500000000     0          
H419     H      0.221000000000     0.500000000000     0.671500000000     0          
C420     C      0.268400000000     0.500000000000     0.729500000000     0          
O421     O      0.429900000000     0.000000000000     0.137200000000     0          
O422     O      0.363300000000     0.000000000000     0.070800000000     0          
C423     C      0.383000000000     0.000000000000     0.119100000000     0          
C424     C      0.341200000000     0.000000000000     0.157700000000     0          
N425     N      0.319700000000     0.000000000000     0.245600000000     0          
C426     C      0.357100000000     0.000000000000     0.209300000000     0          
H427     H      0.391000000000     0.000000000000     0.218000000000     0          
C428     C      0.291600000000     0.000000000000     0.143900000000     0          
H429     H      0.282700000000     0.000000000000     0.110000000000     0          
C430     C      0.254800000000     0.000000000000     0.180500000000     0          
H431     H      0.221000000000     0.000000000000     0.171500000000     0          
C432     C      0.268400000000     0.000000000000     0.229500000000     0          
O433     O      0.070100000000     0.500000000000     0.862800000000     0          
O434     O      0.136700000000     0.500000000000     0.929200000000     0          
C435     C      0.117000000000     0.500000000000     0.880900000000     0          
C436     C      0.158800000000     0.500000000000     0.842300000000     0          
N437     N      0.180300000000     0.500000000000     0.754400000000     0          
C438     C      0.142900000000     0.500000000000     0.790700000000     0          
H439     H      0.109000000000     0.500000000000     0.782000000000     0          
C440     C      0.208400000000     0.500000000000     0.856100000000     0          
H441     H      0.217300000000     0.500000000000     0.890000000000     0          
C442     C      0.245200000000     0.500000000000     0.819500000000     0          
H443     H      0.279000000000     0.500000000000     0.828500000000     0          
C444     C      0.231600000000     0.500000000000     0.770500000000     0          
O445     O      0.070100000000     0.000000000000     0.362800000000     0          
O446     O      0.136700000000     0.000000000000     0.429200000000     0          
C447     C      0.117000000000     0.000000000000     0.380900000000     0          
C448     C      0.158800000000     0.000000000000     0.342300000000     0          
N449     N      0.180300000000     0.000000000000     0.254400000000     0          
C450     C      0.142900000000     0.000000000000     0.290700000000     0          
H451     H      0.109000000000     0.000000000000     0.282000000000     0          
C452     C      0.208400000000     0.000000000000     0.356100000000     0          
H453     H      0.217300000000     0.000000000000     0.390000000000     0          
C454     C      0.245200000000     0.000000000000     0.319500000000     0          
H455     H      0.279000000000     0.000000000000     0.328500000000     0          
C456     C      0.231600000000     0.000000000000     0.270500000000     0          
O457     O      0.570100000000     0.500000000000     0.362800000000     0          
O458     O      0.636700000000     0.500000000000     0.429200000000     0          
C459     C      0.617000000000     0.500000000000     0.380900000000     0          
C460     C      0.658800000000     0.500000000000     0.342300000000     0          
N461     N      0.680300000000     0.500000000000     0.254400000000     0          
C462     C      0.642900000000     0.500000000000     0.290700000000     0          
H463     H      0.609000000000     0.500000000000     0.282000000000     0          
C464     C      0.708400000000     0.500000000000     0.356100000000     0          
H465     H      0.717300000000     0.500000000000     0.390000000000     0          
C466     C      0.745200000000     0.500000000000     0.319500000000     0          
H467     H      0.779000000000     0.500000000000     0.328500000000     0          
C468     C      0.731600000000     0.500000000000     0.270500000000     0          
O469     O      0.570100000000     0.000000000000     0.862800000000     0          
O470     O      0.636700000000     0.000000000000     0.929200000000     0          
C471     C      0.617000000000     0.000000000000     0.880900000000     0          
C472     C      0.658800000000     0.000000000000     0.842300000000     0          
N473     N      0.680300000000     0.000000000000     0.754400000000     0          
C474     C      0.642900000000     0.000000000000     0.790700000000     0          
H475     H      0.609000000000     0.000000000000     0.782000000000     0          
C476     C      0.708400000000     0.000000000000     0.856100000000     0          
H477     H      0.717300000000     0.000000000000     0.890000000000     0          
C478     C      0.745200000000     0.000000000000     0.819500000000     0          
H479     H      0.779000000000     0.000000000000     0.828500000000     0          
C480     C      0.731600000000     0.000000000000     0.770500000000     0          
O481     O      0.929900000000     0.500000000000     0.862800000000     0          
O482     O      0.863300000000     0.500000000000     0.929200000000     0          
C483     C      0.883000000000     0.500000000000     0.880900000000     0          
C484     C      0.841200000000     0.500000000000     0.842300000000     0          
N485     N      0.819700000000     0.500000000000     0.754400000000     0          
C486     C      0.857100000000     0.500000000000     0.790700000000     0          
H487     H      0.891000000000     0.500000000000     0.782000000000     0          
C488     C      0.791600000000     0.500000000000     0.856100000000     0          
H489     H      0.782700000000     0.500000000000     0.890000000000     0          
C490     C      0.754800000000     0.500000000000     0.819500000000     0          
H491     H      0.721000000000     0.500000000000     0.828500000000     0          
C492     C      0.768400000000     0.500000000000     0.770500000000     0          
O493     O      0.929900000000     0.000000000000     0.362800000000     0          
O494     O      0.863300000000     0.000000000000     0.429200000000     0          
C495     C      0.883000000000     0.000000000000     0.380900000000     0          
C496     C      0.841200000000     0.000000000000     0.342300000000     0          
N497     N      0.819700000000     0.000000000000     0.254400000000     0          
C498     C      0.857100000000     0.000000000000     0.290700000000     0          
H499     H      0.891000000000     0.000000000000     0.282000000000     0          
C500     C      0.791600000000     0.000000000000     0.356100000000     0          
H501     H      0.782700000000     0.000000000000     0.390000000000     0          
C502     C      0.754800000000     0.000000000000     0.319500000000     0          
H503     H      0.721000000000     0.000000000000     0.328500000000     0          
C504     C      0.768400000000     0.000000000000     0.270500000000     0          
O505     O      0.429900000000     0.500000000000     0.362800000000     0          
O506     O      0.363300000000     0.500000000000     0.429200000000     0          
C507     C      0.383000000000     0.500000000000     0.380900000000     0          
C508     C      0.341200000000     0.500000000000     0.342300000000     0          
N509     N      0.319700000000     0.500000000000     0.254400000000     0          
C510     C      0.357100000000     0.500000000000     0.290700000000     0          
H511     H      0.391000000000     0.500000000000     0.282000000000     0          
C512     C      0.291600000000     0.500000000000     0.356100000000     0          
H513     H      0.282700000000     0.500000000000     0.390000000000     0          
C514     C      0.254800000000     0.500000000000     0.319500000000     0          
H515     H      0.221000000000     0.500000000000     0.328500000000     0          
C516     C      0.268400000000     0.500000000000     0.270500000000     0          
O517     O      0.429900000000     0.000000000000     0.862800000000     0          
O518     O      0.363300000000     0.000000000000     0.929200000000     0          
C519     C      0.383000000000     0.000000000000     0.880900000000     0          
C520     C      0.341200000000     0.000000000000     0.842300000000     0          
N521     N      0.319700000000     0.000000000000     0.754400000000     0          
C522     C      0.357100000000     0.000000000000     0.790700000000     0          
H523     H      0.391000000000     0.000000000000     0.782000000000     0          
C524     C      0.291600000000     0.000000000000     0.856100000000     0          
H525     H      0.282700000000     0.000000000000     0.890000000000     0          
C526     C      0.254800000000     0.000000000000     0.819500000000     0          
H527     H      0.221000000000     0.000000000000     0.828500000000     0          
C528     C      0.268400000000     0.000000000000     0.770500000000     0          
O529     O      0.070100000000     0.500000000000     0.137200000000     0          
O530     O      0.136700000000     0.500000000000     0.070800000000     0          
C531     C      0.117000000000     0.500000000000     0.119100000000     0          
C532     C      0.158800000000     0.500000000000     0.157700000000     0          
N533     N      0.180300000000     0.500000000000     0.245600000000     0          
C534     C      0.142900000000     0.500000000000     0.209300000000     0          
H535     H      0.109000000000     0.500000000000     0.218000000000     0          
C536     C      0.208400000000     0.500000000000     0.143900000000     0          
H537     H      0.217300000000     0.500000000000     0.110000000000     0          
C538     C      0.245200000000     0.500000000000     0.180500000000     0          
H539     H      0.279000000000     0.500000000000     0.171500000000     0          
C540     C      0.231600000000     0.500000000000     0.229500000000     0          
O541     O      0.070100000000     0.000000000000     0.637200000000     0          
O542     O      0.136700000000     0.000000000000     0.570800000000     0          
C543     C      0.117000000000     0.000000000000     0.619100000000     0          
C544     C      0.158800000000     0.000000000000     0.657700000000     0          
N545     N      0.180300000000     0.000000000000     0.745600000000     0          
C546     C      0.142900000000     0.000000000000     0.709300000000     0          
H547     H      0.109000000000     0.000000000000     0.718000000000     0          
C548     C      0.208400000000     0.000000000000     0.643900000000     0          
H549     H      0.217300000000     0.000000000000     0.610000000000     0          
C550     C      0.245200000000     0.000000000000     0.680500000000     0          
H551     H      0.279000000000     0.000000000000     0.671500000000     0          
C552     C      0.231600000000     0.000000000000     0.729500000000     0          
O553     O      0.570100000000     0.500000000000     0.637200000000     0          
O554     O      0.636700000000     0.500000000000     0.570800000000     0          
C555     C      0.617000000000     0.500000000000     0.619100000000     0          
C556     C      0.658800000000     0.500000000000     0.657700000000     0          
N557     N      0.680300000000     0.500000000000     0.745600000000     0          
C558     C      0.642900000000     0.500000000000     0.709300000000     0          
H559     H      0.609000000000     0.500000000000     0.718000000000     0          
C560     C      0.708400000000     0.500000000000     0.643900000000     0          
H561     H      0.717300000000     0.500000000000     0.610000000000     0          
C562     C      0.745200000000     0.500000000000     0.680500000000     0          
H563     H      0.779000000000     0.500000000000     0.671500000000     0          
C564     C      0.731600000000     0.500000000000     0.729500000000     0          
O565     O      0.570100000000     0.000000000000     0.137200000000     0          
O566     O      0.636700000000     0.000000000000     0.070800000000     0          
C567     C      0.617000000000     0.000000000000     0.119100000000     0          
C568     C      0.658800000000     0.000000000000     0.157700000000     0          
N569     N      0.680300000000     0.000000000000     0.245600000000     0          
C570     C      0.642900000000     0.000000000000     0.209300000000     0          
H571     H      0.609000000000     0.000000000000     0.218000000000     0          
C572     C      0.708400000000     0.000000000000     0.143900000000     0          
H573     H      0.717300000000     0.000000000000     0.110000000000     0          
C574     C      0.745200000000     0.000000000000     0.180500000000     0          
H575     H      0.779000000000     0.000000000000     0.171500000000     0          
C576     C      0.731600000000     0.000000000000     0.229500000000     0          
Zr577    Zr     0.093410000000     0.000000000000     0.500000000000     0          
Zr578    Zr     0.093410000000     0.500000000000     0.000000000000     0          
Zr579    Zr     0.593410000000     0.000000000000     0.000000000000     0          
Zr580    Zr     0.593410000000     0.500000000000     0.500000000000     0          
Zr581    Zr     0.906590000000     0.000000000000     0.500000000000     0          
Zr582    Zr     0.906590000000     0.500000000000     0.000000000000     0          
Zr583    Zr     0.406590000000     0.000000000000     0.000000000000     0          
Zr584    Zr     0.406590000000     0.500000000000     0.500000000000     0          
Zr585    Zr     0.500000000000     0.093410000000     0.000000000000     0          
Zr586    Zr     0.500000000000     0.593410000000     0.500000000000     0          
Zr587    Zr     0.000000000000     0.093410000000     0.500000000000     0          
Zr588    Zr     0.000000000000     0.593410000000     0.000000000000     0          
Zr589    Zr     0.500000000000     0.906590000000     0.000000000000     0          
Zr590    Zr     0.500000000000     0.406590000000     0.500000000000     0          
Zr591    Zr     0.000000000000     0.906590000000     0.500000000000     0          
Zr592    Zr     0.000000000000     0.406590000000     0.000000000000     0          
Zr593    Zr     0.000000000000     0.500000000000     0.093410000000     0          
Zr594    Zr     0.000000000000     0.000000000000     0.593410000000     0          
Zr595    Zr     0.500000000000     0.500000000000     0.593410000000     0          
Zr596    Zr     0.500000000000     0.000000000000     0.093410000000     0          
Zr597    Zr     0.000000000000     0.500000000000     0.906590000000     0          
Zr598    Zr     0.000000000000     0.000000000000     0.406590000000     0          
Zr599    Zr     0.500000000000     0.500000000000     0.406590000000     0          
Zr600    Zr     0.500000000000     0.000000000000     0.906590000000     0          
O601     O      0.046300000000     0.046300000000     0.453700000000     0          
O602     O      0.953700000000     0.953700000000     0.453700000000     0          
O603     O      0.953700000000     0.046300000000     0.546300000000     0          
O604     O      0.046300000000     0.953700000000     0.546300000000     0          
O605     O      0.453700000000     0.046300000000     0.046300000000     0          
O606     O      0.453700000000     0.546300000000     0.546300000000     0          
O607     O      0.453700000000     0.953700000000     0.953700000000     0          
O608     O      0.453700000000     0.453700000000     0.453700000000     0          
O609     O      0.546300000000     0.953700000000     0.046300000000     0          
O610     O      0.546300000000     0.453700000000     0.546300000000     0          
O611     O      0.546300000000     0.046300000000     0.953700000000     0          
O612     O      0.546300000000     0.546300000000     0.453700000000     0          
O613     O      0.046300000000     0.453700000000     0.046300000000     0          
O614     O      0.953700000000     0.453700000000     0.953700000000     0          
O615     O      0.046300000000     0.546300000000     0.953700000000     0          
O616     O      0.953700000000     0.546300000000     0.046300000000     0          
O617     O      0.953700000000     0.953700000000     0.546300000000     0          
O618     O      0.046300000000     0.046300000000     0.546300000000     0          
O619     O      0.046300000000     0.953700000000     0.453700000000     0          
O620     O      0.953700000000     0.046300000000     0.453700000000     0          
O621     O      0.546300000000     0.953700000000     0.953700000000     0          
O622     O      0.546300000000     0.453700000000     0.453700000000     0          
O623     O      0.546300000000     0.046300000000     0.046300000000     0          
O624     O      0.546300000000     0.546300000000     0.546300000000     0          
O625     O      0.453700000000     0.046300000000     0.953700000000     0          
O626     O      0.453700000000     0.546300000000     0.453700000000     0          
O627     O      0.453700000000     0.953700000000     0.046300000000     0          
O628     O      0.453700000000     0.453700000000     0.546300000000     0          
O629     O      0.953700000000     0.546300000000     0.953700000000     0          
O630     O      0.046300000000     0.546300000000     0.046300000000     0          
O631     O      0.953700000000     0.453700000000     0.046300000000     0          
O632     O      0.046300000000     0.453700000000     0.953700000000     0          


