data_XULGIW

_audit_creation_method RASPA-1.0
_audit_creation_date 2020-11-2
_audit_author_name 'Rocio Bueno-Perez'

_cell_length_a    30.2029
_cell_length_b    30.2029
_cell_length_c    30.2029
_cell_angle_alpha 90
_cell_angle_beta  90
_cell_angle_gamma 90
_cell_volume      27551.5

_symmetry_cell_setting          triclinic
_symmetry_space_group_name_Hall 'P 1'
_symmetry_space_group_name_H-M  'P 1'
_symmetry_Int_Tables_number     1

_symmetry_equiv_pos_as_xyz 'x,y,z'

loop_
_atom_site_label
_atom_site_type_symbol
_atom_site_fract_x
_atom_site_fract_y
_atom_site_fract_z
_atom_site_charge
Zr1      Zr     0.000000000000     0.081340000000     0.000000000000     0          
Zr2      Zr     0.000000000000     0.581340000000     0.500000000000     0          
Zr3      Zr     0.500000000000     0.081340000000     0.500000000000     0          
Zr4      Zr     0.500000000000     0.581340000000     0.000000000000     0          
Zr5      Zr     0.000000000000     0.918660000000     0.000000000000     0          
Zr6      Zr     0.000000000000     0.418660000000     0.500000000000     0          
Zr7      Zr     0.500000000000     0.918660000000     0.500000000000     0          
Zr8      Zr     0.500000000000     0.418660000000     0.000000000000     0          
Zr9      Zr     0.000000000000     0.000000000000     0.081340000000     0          
Zr10     Zr     0.000000000000     0.500000000000     0.581340000000     0          
Zr11     Zr     0.500000000000     0.000000000000     0.581340000000     0          
Zr12     Zr     0.500000000000     0.500000000000     0.081340000000     0          
Zr13     Zr     0.000000000000     0.000000000000     0.918660000000     0          
Zr14     Zr     0.000000000000     0.500000000000     0.418660000000     0          
Zr15     Zr     0.500000000000     0.000000000000     0.418660000000     0          
Zr16     Zr     0.500000000000     0.500000000000     0.918660000000     0          
Zr17     Zr     0.081340000000     0.000000000000     0.000000000000     0          
Zr18     Zr     0.081340000000     0.500000000000     0.500000000000     0          
Zr19     Zr     0.581340000000     0.000000000000     0.500000000000     0          
Zr20     Zr     0.581340000000     0.500000000000     0.000000000000     0          
Zr21     Zr     0.918660000000     0.000000000000     0.000000000000     0          
Zr22     Zr     0.918660000000     0.500000000000     0.500000000000     0          
Zr23     Zr     0.418660000000     0.000000000000     0.500000000000     0          
Zr24     Zr     0.418660000000     0.500000000000     0.000000000000     0          
O25      O      0.000000000000     0.117800000000     0.063330000000     0          
C26      C      0.000000000000     0.182980000000     0.123990000000     0          
H27      H      0.000000000000     0.191200000000     0.093600000000     0          
C28      C      0.000000000000     0.213720000000     0.158350000000     0          
H29      H      0.000000000000     0.244200000000     0.150400000000     0          
O30      O      0.000000000000     0.617800000000     0.563330000000     0          
C31      C      0.000000000000     0.682980000000     0.623990000000     0          
H32      H      0.000000000000     0.691200000000     0.593600000000     0          
C33      C      0.000000000000     0.713720000000     0.658350000000     0          
H34      H      0.000000000000     0.744200000000     0.650400000000     0          
O35      O      0.500000000000     0.117800000000     0.563330000000     0          
C36      C      0.500000000000     0.182980000000     0.623990000000     0          
H37      H      0.500000000000     0.191200000000     0.593600000000     0          
C38      C      0.500000000000     0.213720000000     0.658350000000     0          
H39      H      0.500000000000     0.244200000000     0.650400000000     0          
O40      O      0.500000000000     0.617800000000     0.063330000000     0          
C41      C      0.500000000000     0.682980000000     0.123990000000     0          
H42      H      0.500000000000     0.691200000000     0.093600000000     0          
C43      C      0.500000000000     0.713720000000     0.158350000000     0          
H44      H      0.500000000000     0.744200000000     0.150400000000     0          
O45      O      0.000000000000     0.882200000000     0.063330000000     0          
C46      C      0.000000000000     0.817020000000     0.123990000000     0          
H47      H      0.000000000000     0.808800000000     0.093600000000     0          
C48      C      0.000000000000     0.786280000000     0.158350000000     0          
H49      H      0.000000000000     0.755800000000     0.150400000000     0          
O50      O      0.000000000000     0.382200000000     0.563330000000     0          
C51      C      0.000000000000     0.317020000000     0.623990000000     0          
H52      H      0.000000000000     0.308800000000     0.593600000000     0          
C53      C      0.000000000000     0.286280000000     0.658350000000     0          
H54      H      0.000000000000     0.255800000000     0.650400000000     0          
O55      O      0.500000000000     0.882200000000     0.563330000000     0          
C56      C      0.500000000000     0.817020000000     0.623990000000     0          
H57      H      0.500000000000     0.808800000000     0.593600000000     0          
C58      C      0.500000000000     0.786280000000     0.658350000000     0          
H59      H      0.500000000000     0.755800000000     0.650400000000     0          
O60      O      0.500000000000     0.382200000000     0.063330000000     0          
C61      C      0.500000000000     0.317020000000     0.123990000000     0          
H62      H      0.500000000000     0.308800000000     0.093600000000     0          
C63      C      0.500000000000     0.286280000000     0.158350000000     0          
H64      H      0.500000000000     0.255800000000     0.150400000000     0          
O65      O      0.000000000000     0.117800000000     0.936670000000     0          
C66      C      0.000000000000     0.182980000000     0.876010000000     0          
H67      H      0.000000000000     0.191200000000     0.906400000000     0          
C68      C      0.000000000000     0.213720000000     0.841650000000     0          
H69      H      0.000000000000     0.244200000000     0.849600000000     0          
O70      O      0.000000000000     0.617800000000     0.436670000000     0          
C71      C      0.000000000000     0.682980000000     0.376010000000     0          
H72      H      0.000000000000     0.691200000000     0.406400000000     0          
C73      C      0.000000000000     0.713720000000     0.341650000000     0          
H74      H      0.000000000000     0.744200000000     0.349600000000     0          
O75      O      0.500000000000     0.117800000000     0.436670000000     0          
C76      C      0.500000000000     0.182980000000     0.376010000000     0          
H77      H      0.500000000000     0.191200000000     0.406400000000     0          
C78      C      0.500000000000     0.213720000000     0.341650000000     0          
H79      H      0.500000000000     0.244200000000     0.349600000000     0          
O80      O      0.500000000000     0.617800000000     0.936670000000     0          
C81      C      0.500000000000     0.682980000000     0.876010000000     0          
H82      H      0.500000000000     0.691200000000     0.906400000000     0          
C83      C      0.500000000000     0.713720000000     0.841650000000     0          
H84      H      0.500000000000     0.744200000000     0.849600000000     0          
O85      O      0.000000000000     0.882200000000     0.936670000000     0          
C86      C      0.000000000000     0.817020000000     0.876010000000     0          
H87      H      0.000000000000     0.808800000000     0.906400000000     0          
C88      C      0.000000000000     0.786280000000     0.841650000000     0          
H89      H      0.000000000000     0.755800000000     0.849600000000     0          
O90      O      0.000000000000     0.382200000000     0.436670000000     0          
C91      C      0.000000000000     0.317020000000     0.376010000000     0          
H92      H      0.000000000000     0.308800000000     0.406400000000     0          
C93      C      0.000000000000     0.286280000000     0.341650000000     0          
H94      H      0.000000000000     0.255800000000     0.349600000000     0          
O95      O      0.500000000000     0.882200000000     0.436670000000     0          
C96      C      0.500000000000     0.817020000000     0.376010000000     0          
H97      H      0.500000000000     0.808800000000     0.406400000000     0          
C98      C      0.500000000000     0.786280000000     0.341650000000     0          
H99      H      0.500000000000     0.755800000000     0.349600000000     0          
O100     O      0.500000000000     0.382200000000     0.936670000000     0          
C101     C      0.500000000000     0.317020000000     0.876010000000     0          
H102     H      0.500000000000     0.308800000000     0.906400000000     0          
C103     C      0.500000000000     0.286280000000     0.841650000000     0          
H104     H      0.500000000000     0.255800000000     0.849600000000     0          
O105     O      0.063330000000     0.000000000000     0.117800000000     0          
C106     C      0.123990000000     0.000000000000     0.182980000000     0          
H107     H      0.093600000000     0.000000000000     0.191200000000     0          
C108     C      0.158350000000     0.000000000000     0.213720000000     0          
H109     H      0.150400000000     0.000000000000     0.244200000000     0          
O110     O      0.063330000000     0.500000000000     0.617800000000     0          
C111     C      0.123990000000     0.500000000000     0.682980000000     0          
H112     H      0.093600000000     0.500000000000     0.691200000000     0          
C113     C      0.158350000000     0.500000000000     0.713720000000     0          
H114     H      0.150400000000     0.500000000000     0.744200000000     0          
O115     O      0.563330000000     0.000000000000     0.617800000000     0          
C116     C      0.623990000000     0.000000000000     0.682980000000     0          
H117     H      0.593600000000     0.000000000000     0.691200000000     0          
C118     C      0.658350000000     0.000000000000     0.713720000000     0          
H119     H      0.650400000000     0.000000000000     0.744200000000     0          
O120     O      0.563330000000     0.500000000000     0.117800000000     0          
C121     C      0.623990000000     0.500000000000     0.182980000000     0          
H122     H      0.593600000000     0.500000000000     0.191200000000     0          
C123     C      0.658350000000     0.500000000000     0.213720000000     0          
H124     H      0.650400000000     0.500000000000     0.244200000000     0          
O125     O      0.063330000000     0.000000000000     0.882200000000     0          
C126     C      0.123990000000     0.000000000000     0.817020000000     0          
H127     H      0.093600000000     0.000000000000     0.808800000000     0          
C128     C      0.158350000000     0.000000000000     0.786280000000     0          
H129     H      0.150400000000     0.000000000000     0.755800000000     0          
O130     O      0.063330000000     0.500000000000     0.382200000000     0          
C131     C      0.123990000000     0.500000000000     0.317020000000     0          
H132     H      0.093600000000     0.500000000000     0.308800000000     0          
C133     C      0.158350000000     0.500000000000     0.286280000000     0          
H134     H      0.150400000000     0.500000000000     0.255800000000     0          
O135     O      0.563330000000     0.000000000000     0.382200000000     0          
C136     C      0.623990000000     0.000000000000     0.317020000000     0          
H137     H      0.593600000000     0.000000000000     0.308800000000     0          
C138     C      0.658350000000     0.000000000000     0.286280000000     0          
H139     H      0.650400000000     0.000000000000     0.255800000000     0          
O140     O      0.563330000000     0.500000000000     0.882200000000     0          
C141     C      0.623990000000     0.500000000000     0.817020000000     0          
H142     H      0.593600000000     0.500000000000     0.808800000000     0          
C143     C      0.658350000000     0.500000000000     0.786280000000     0          
H144     H      0.650400000000     0.500000000000     0.755800000000     0          
O145     O      0.936670000000     0.000000000000     0.117800000000     0          
C146     C      0.876010000000     0.000000000000     0.182980000000     0          
H147     H      0.906400000000     0.000000000000     0.191200000000     0          
C148     C      0.841650000000     0.000000000000     0.213720000000     0          
H149     H      0.849600000000     0.000000000000     0.244200000000     0          
O150     O      0.936670000000     0.500000000000     0.617800000000     0          
C151     C      0.876010000000     0.500000000000     0.682980000000     0          
H152     H      0.906400000000     0.500000000000     0.691200000000     0          
C153     C      0.841650000000     0.500000000000     0.713720000000     0          
H154     H      0.849600000000     0.500000000000     0.744200000000     0          
O155     O      0.436670000000     0.000000000000     0.617800000000     0          
C156     C      0.376010000000     0.000000000000     0.682980000000     0          
H157     H      0.406400000000     0.000000000000     0.691200000000     0          
C158     C      0.341650000000     0.000000000000     0.713720000000     0          
H159     H      0.349600000000     0.000000000000     0.744200000000     0          
O160     O      0.436670000000     0.500000000000     0.117800000000     0          
C161     C      0.376010000000     0.500000000000     0.182980000000     0          
H162     H      0.406400000000     0.500000000000     0.191200000000     0          
C163     C      0.341650000000     0.500000000000     0.213720000000     0          
H164     H      0.349600000000     0.500000000000     0.244200000000     0          
O165     O      0.936670000000     0.000000000000     0.882200000000     0          
C166     C      0.876010000000     0.000000000000     0.817020000000     0          
H167     H      0.906400000000     0.000000000000     0.808800000000     0          
C168     C      0.841650000000     0.000000000000     0.786280000000     0          
H169     H      0.849600000000     0.000000000000     0.755800000000     0          
O170     O      0.936670000000     0.500000000000     0.382200000000     0          
C171     C      0.876010000000     0.500000000000     0.317020000000     0          
H172     H      0.906400000000     0.500000000000     0.308800000000     0          
C173     C      0.841650000000     0.500000000000     0.286280000000     0          
H174     H      0.849600000000     0.500000000000     0.255800000000     0          
O175     O      0.436670000000     0.000000000000     0.382200000000     0          
C176     C      0.376010000000     0.000000000000     0.317020000000     0          
H177     H      0.406400000000     0.000000000000     0.308800000000     0          
C178     C      0.341650000000     0.000000000000     0.286280000000     0          
H179     H      0.349600000000     0.000000000000     0.255800000000     0          
O180     O      0.436670000000     0.500000000000     0.882200000000     0          
C181     C      0.376010000000     0.500000000000     0.817020000000     0          
H182     H      0.406400000000     0.500000000000     0.808800000000     0          
C183     C      0.341650000000     0.500000000000     0.786280000000     0          
H184     H      0.349600000000     0.500000000000     0.755800000000     0          
O185     O      0.117800000000     0.063330000000     0.000000000000     0          
C186     C      0.182980000000     0.123990000000     0.000000000000     0          
H187     H      0.191200000000     0.093600000000     0.000000000000     0          
C188     C      0.213720000000     0.158350000000     0.000000000000     0          
H189     H      0.244200000000     0.150400000000     0.000000000000     0          
O190     O      0.117800000000     0.563330000000     0.500000000000     0          
C191     C      0.182980000000     0.623990000000     0.500000000000     0          
H192     H      0.191200000000     0.593600000000     0.500000000000     0          
C193     C      0.213720000000     0.658350000000     0.500000000000     0          
H194     H      0.244200000000     0.650400000000     0.500000000000     0          
O195     O      0.617800000000     0.063330000000     0.500000000000     0          
C196     C      0.682980000000     0.123990000000     0.500000000000     0          
H197     H      0.691200000000     0.093600000000     0.500000000000     0          
C198     C      0.713720000000     0.158350000000     0.500000000000     0          
H199     H      0.744200000000     0.150400000000     0.500000000000     0          
O200     O      0.617800000000     0.563330000000     0.000000000000     0          
C201     C      0.682980000000     0.623990000000     0.000000000000     0          
H202     H      0.691200000000     0.593600000000     0.000000000000     0          
C203     C      0.713720000000     0.658350000000     0.000000000000     0          
H204     H      0.744200000000     0.650400000000     0.000000000000     0          
O205     O      0.882200000000     0.063330000000     0.000000000000     0          
C206     C      0.817020000000     0.123990000000     0.000000000000     0          
H207     H      0.808800000000     0.093600000000     0.000000000000     0          
C208     C      0.786280000000     0.158350000000     0.000000000000     0          
H209     H      0.755800000000     0.150400000000     0.000000000000     0          
O210     O      0.882200000000     0.563330000000     0.500000000000     0          
C211     C      0.817020000000     0.623990000000     0.500000000000     0          
H212     H      0.808800000000     0.593600000000     0.500000000000     0          
C213     C      0.786280000000     0.658350000000     0.500000000000     0          
H214     H      0.755800000000     0.650400000000     0.500000000000     0          
O215     O      0.382200000000     0.063330000000     0.500000000000     0          
C216     C      0.317020000000     0.123990000000     0.500000000000     0          
H217     H      0.308800000000     0.093600000000     0.500000000000     0          
C218     C      0.286280000000     0.158350000000     0.500000000000     0          
H219     H      0.255800000000     0.150400000000     0.500000000000     0          
O220     O      0.382200000000     0.563330000000     0.000000000000     0          
C221     C      0.317020000000     0.623990000000     0.000000000000     0          
H222     H      0.308800000000     0.593600000000     0.000000000000     0          
C223     C      0.286280000000     0.658350000000     0.000000000000     0          
H224     H      0.255800000000     0.650400000000     0.000000000000     0          
O225     O      0.117800000000     0.936670000000     0.000000000000     0          
C226     C      0.182980000000     0.876010000000     0.000000000000     0          
H227     H      0.191200000000     0.906400000000     0.000000000000     0          
C228     C      0.213720000000     0.841650000000     0.000000000000     0          
H229     H      0.244200000000     0.849600000000     0.000000000000     0          
O230     O      0.117800000000     0.436670000000     0.500000000000     0          
C231     C      0.182980000000     0.376010000000     0.500000000000     0          
H232     H      0.191200000000     0.406400000000     0.500000000000     0          
C233     C      0.213720000000     0.341650000000     0.500000000000     0          
H234     H      0.244200000000     0.349600000000     0.500000000000     0          
O235     O      0.617800000000     0.936670000000     0.500000000000     0          
C236     C      0.682980000000     0.876010000000     0.500000000000     0          
H237     H      0.691200000000     0.906400000000     0.500000000000     0          
C238     C      0.713720000000     0.841650000000     0.500000000000     0          
H239     H      0.744200000000     0.849600000000     0.500000000000     0          
O240     O      0.617800000000     0.436670000000     0.000000000000     0          
C241     C      0.682980000000     0.376010000000     0.000000000000     0          
H242     H      0.691200000000     0.406400000000     0.000000000000     0          
C243     C      0.713720000000     0.341650000000     0.000000000000     0          
H244     H      0.744200000000     0.349600000000     0.000000000000     0          
O245     O      0.882200000000     0.936670000000     0.000000000000     0          
C246     C      0.817020000000     0.876010000000     0.000000000000     0          
H247     H      0.808800000000     0.906400000000     0.000000000000     0          
C248     C      0.786280000000     0.841650000000     0.000000000000     0          
H249     H      0.755800000000     0.849600000000     0.000000000000     0          
O250     O      0.882200000000     0.436670000000     0.500000000000     0          
C251     C      0.817020000000     0.376010000000     0.500000000000     0          
H252     H      0.808800000000     0.406400000000     0.500000000000     0          
C253     C      0.786280000000     0.341650000000     0.500000000000     0          
H254     H      0.755800000000     0.349600000000     0.500000000000     0          
O255     O      0.382200000000     0.936670000000     0.500000000000     0          
C256     C      0.317020000000     0.876010000000     0.500000000000     0          
H257     H      0.308800000000     0.906400000000     0.500000000000     0          
C258     C      0.286280000000     0.841650000000     0.500000000000     0          
H259     H      0.255800000000     0.849600000000     0.500000000000     0          
O260     O      0.382200000000     0.436670000000     0.000000000000     0          
C261     C      0.317020000000     0.376010000000     0.000000000000     0          
H262     H      0.308800000000     0.406400000000     0.000000000000     0          
C263     C      0.286280000000     0.341650000000     0.000000000000     0          
H264     H      0.255800000000     0.349600000000     0.000000000000     0          
O265     O      0.117800000000     0.000000000000     0.936670000000     0          
C266     C      0.182980000000     0.000000000000     0.876010000000     0          
H267     H      0.191200000000     0.000000000000     0.906400000000     0          
C268     C      0.213720000000     0.000000000000     0.841650000000     0          
H269     H      0.244200000000     0.000000000000     0.849600000000     0          
O270     O      0.117800000000     0.500000000000     0.436670000000     0          
C271     C      0.182980000000     0.500000000000     0.376010000000     0          
H272     H      0.191200000000     0.500000000000     0.406400000000     0          
C273     C      0.213720000000     0.500000000000     0.341650000000     0          
H274     H      0.244200000000     0.500000000000     0.349600000000     0          
O275     O      0.617800000000     0.000000000000     0.436670000000     0          
C276     C      0.682980000000     0.000000000000     0.376010000000     0          
H277     H      0.691200000000     0.000000000000     0.406400000000     0          
C278     C      0.713720000000     0.000000000000     0.341650000000     0          
H279     H      0.744200000000     0.000000000000     0.349600000000     0          
O280     O      0.617800000000     0.500000000000     0.936670000000     0          
C281     C      0.682980000000     0.500000000000     0.876010000000     0          
H282     H      0.691200000000     0.500000000000     0.906400000000     0          
C283     C      0.713720000000     0.500000000000     0.841650000000     0          
H284     H      0.744200000000     0.500000000000     0.849600000000     0          
O285     O      0.882200000000     0.000000000000     0.936670000000     0          
C286     C      0.817020000000     0.000000000000     0.876010000000     0          
H287     H      0.808800000000     0.000000000000     0.906400000000     0          
C288     C      0.786280000000     0.000000000000     0.841650000000     0          
H289     H      0.755800000000     0.000000000000     0.849600000000     0          
O290     O      0.882200000000     0.500000000000     0.436670000000     0          
C291     C      0.817020000000     0.500000000000     0.376010000000     0          
H292     H      0.808800000000     0.500000000000     0.406400000000     0          
C293     C      0.786280000000     0.500000000000     0.341650000000     0          
H294     H      0.755800000000     0.500000000000     0.349600000000     0          
O295     O      0.382200000000     0.000000000000     0.436670000000     0          
C296     C      0.317020000000     0.000000000000     0.376010000000     0          
H297     H      0.308800000000     0.000000000000     0.406400000000     0          
C298     C      0.286280000000     0.000000000000     0.341650000000     0          
H299     H      0.255800000000     0.000000000000     0.349600000000     0          
O300     O      0.382200000000     0.500000000000     0.936670000000     0          
C301     C      0.317020000000     0.500000000000     0.876010000000     0          
H302     H      0.308800000000     0.500000000000     0.906400000000     0          
C303     C      0.286280000000     0.500000000000     0.841650000000     0          
H304     H      0.255800000000     0.500000000000     0.849600000000     0          
O305     O      0.117800000000     0.000000000000     0.063330000000     0          
C306     C      0.182980000000     0.000000000000     0.123990000000     0          
H307     H      0.191200000000     0.000000000000     0.093600000000     0          
C308     C      0.213720000000     0.000000000000     0.158350000000     0          
H309     H      0.244200000000     0.000000000000     0.150400000000     0          
O310     O      0.117800000000     0.500000000000     0.563330000000     0          
C311     C      0.182980000000     0.500000000000     0.623990000000     0          
H312     H      0.191200000000     0.500000000000     0.593600000000     0          
C313     C      0.213720000000     0.500000000000     0.658350000000     0          
H314     H      0.244200000000     0.500000000000     0.650400000000     0          
O315     O      0.617800000000     0.000000000000     0.563330000000     0          
C316     C      0.682980000000     0.000000000000     0.623990000000     0          
H317     H      0.691200000000     0.000000000000     0.593600000000     0          
C318     C      0.713720000000     0.000000000000     0.658350000000     0          
H319     H      0.744200000000     0.000000000000     0.650400000000     0          
O320     O      0.617800000000     0.500000000000     0.063330000000     0          
C321     C      0.682980000000     0.500000000000     0.123990000000     0          
H322     H      0.691200000000     0.500000000000     0.093600000000     0          
C323     C      0.713720000000     0.500000000000     0.158350000000     0          
H324     H      0.744200000000     0.500000000000     0.150400000000     0          
O325     O      0.882200000000     0.000000000000     0.063330000000     0          
C326     C      0.817020000000     0.000000000000     0.123990000000     0          
H327     H      0.808800000000     0.000000000000     0.093600000000     0          
C328     C      0.786280000000     0.000000000000     0.158350000000     0          
H329     H      0.755800000000     0.000000000000     0.150400000000     0          
O330     O      0.882200000000     0.500000000000     0.563330000000     0          
C331     C      0.817020000000     0.500000000000     0.623990000000     0          
H332     H      0.808800000000     0.500000000000     0.593600000000     0          
C333     C      0.786280000000     0.500000000000     0.658350000000     0          
H334     H      0.755800000000     0.500000000000     0.650400000000     0          
O335     O      0.382200000000     0.000000000000     0.563330000000     0          
C336     C      0.317020000000     0.000000000000     0.623990000000     0          
H337     H      0.308800000000     0.000000000000     0.593600000000     0          
C338     C      0.286280000000     0.000000000000     0.658350000000     0          
H339     H      0.255800000000     0.000000000000     0.650400000000     0          
O340     O      0.382200000000     0.500000000000     0.063330000000     0          
C341     C      0.317020000000     0.500000000000     0.123990000000     0          
H342     H      0.308800000000     0.500000000000     0.093600000000     0          
C343     C      0.286280000000     0.500000000000     0.158350000000     0          
H344     H      0.255800000000     0.500000000000     0.150400000000     0          
O345     O      0.000000000000     0.063330000000     0.882200000000     0          
C346     C      0.000000000000     0.123990000000     0.817020000000     0          
H347     H      0.000000000000     0.093600000000     0.808800000000     0          
C348     C      0.000000000000     0.158350000000     0.786280000000     0          
H349     H      0.000000000000     0.150400000000     0.755800000000     0          
O350     O      0.000000000000     0.563330000000     0.382200000000     0          
C351     C      0.000000000000     0.623990000000     0.317020000000     0          
H352     H      0.000000000000     0.593600000000     0.308800000000     0          
C353     C      0.000000000000     0.658350000000     0.286280000000     0          
H354     H      0.000000000000     0.650400000000     0.255800000000     0          
O355     O      0.500000000000     0.063330000000     0.382200000000     0          
C356     C      0.500000000000     0.123990000000     0.317020000000     0          
H357     H      0.500000000000     0.093600000000     0.308800000000     0          
C358     C      0.500000000000     0.158350000000     0.286280000000     0          
H359     H      0.500000000000     0.150400000000     0.255800000000     0          
O360     O      0.500000000000     0.563330000000     0.882200000000     0          
C361     C      0.500000000000     0.623990000000     0.817020000000     0          
H362     H      0.500000000000     0.593600000000     0.808800000000     0          
C363     C      0.500000000000     0.658350000000     0.786280000000     0          
H364     H      0.500000000000     0.650400000000     0.755800000000     0          
O365     O      0.000000000000     0.063330000000     0.117800000000     0          
C366     C      0.000000000000     0.123990000000     0.182980000000     0          
H367     H      0.000000000000     0.093600000000     0.191200000000     0          
C368     C      0.000000000000     0.158350000000     0.213720000000     0          
H369     H      0.000000000000     0.150400000000     0.244200000000     0          
O370     O      0.000000000000     0.563330000000     0.617800000000     0          
C371     C      0.000000000000     0.623990000000     0.682980000000     0          
H372     H      0.000000000000     0.593600000000     0.691200000000     0          
C373     C      0.000000000000     0.658350000000     0.713720000000     0          
H374     H      0.000000000000     0.650400000000     0.744200000000     0          
O375     O      0.500000000000     0.063330000000     0.617800000000     0          
C376     C      0.500000000000     0.123990000000     0.682980000000     0          
H377     H      0.500000000000     0.093600000000     0.691200000000     0          
C378     C      0.500000000000     0.158350000000     0.713720000000     0          
H379     H      0.500000000000     0.150400000000     0.744200000000     0          
O380     O      0.500000000000     0.563330000000     0.117800000000     0          
C381     C      0.500000000000     0.623990000000     0.182980000000     0          
H382     H      0.500000000000     0.593600000000     0.191200000000     0          
C383     C      0.500000000000     0.658350000000     0.213720000000     0          
H384     H      0.500000000000     0.650400000000     0.244200000000     0          
O385     O      0.000000000000     0.936670000000     0.882200000000     0          
C386     C      0.000000000000     0.876010000000     0.817020000000     0          
H387     H      0.000000000000     0.906400000000     0.808800000000     0          
C388     C      0.000000000000     0.841650000000     0.786280000000     0          
H389     H      0.000000000000     0.849600000000     0.755800000000     0          
O390     O      0.000000000000     0.436670000000     0.382200000000     0          
C391     C      0.000000000000     0.376010000000     0.317020000000     0          
H392     H      0.000000000000     0.406400000000     0.308800000000     0          
C393     C      0.000000000000     0.341650000000     0.286280000000     0          
H394     H      0.000000000000     0.349600000000     0.255800000000     0          
O395     O      0.500000000000     0.936670000000     0.382200000000     0          
C396     C      0.500000000000     0.876010000000     0.317020000000     0          
H397     H      0.500000000000     0.906400000000     0.308800000000     0          
C398     C      0.500000000000     0.841650000000     0.286280000000     0          
H399     H      0.500000000000     0.849600000000     0.255800000000     0          
O400     O      0.500000000000     0.436670000000     0.882200000000     0          
C401     C      0.500000000000     0.376010000000     0.817020000000     0          
H402     H      0.500000000000     0.406400000000     0.808800000000     0          
C403     C      0.500000000000     0.341650000000     0.786280000000     0          
H404     H      0.500000000000     0.349600000000     0.755800000000     0          
O405     O      0.000000000000     0.936670000000     0.117800000000     0          
C406     C      0.000000000000     0.876010000000     0.182980000000     0          
H407     H      0.000000000000     0.906400000000     0.191200000000     0          
C408     C      0.000000000000     0.841650000000     0.213720000000     0          
H409     H      0.000000000000     0.849600000000     0.244200000000     0          
O410     O      0.000000000000     0.436670000000     0.617800000000     0          
C411     C      0.000000000000     0.376010000000     0.682980000000     0          
H412     H      0.000000000000     0.406400000000     0.691200000000     0          
C413     C      0.000000000000     0.341650000000     0.713720000000     0          
H414     H      0.000000000000     0.349600000000     0.744200000000     0          
O415     O      0.500000000000     0.936670000000     0.617800000000     0          
C416     C      0.500000000000     0.876010000000     0.682980000000     0          
H417     H      0.500000000000     0.906400000000     0.691200000000     0          
C418     C      0.500000000000     0.841650000000     0.713720000000     0          
H419     H      0.500000000000     0.849600000000     0.744200000000     0          
O420     O      0.500000000000     0.436670000000     0.117800000000     0          
C421     C      0.500000000000     0.376010000000     0.182980000000     0          
H422     H      0.500000000000     0.406400000000     0.191200000000     0          
C423     C      0.500000000000     0.341650000000     0.213720000000     0          
H424     H      0.500000000000     0.349600000000     0.244200000000     0          
O425     O      0.063330000000     0.117800000000     0.000000000000     0          
C426     C      0.123990000000     0.182980000000     0.000000000000     0          
H427     H      0.093600000000     0.191200000000     0.000000000000     0          
C428     C      0.158350000000     0.213720000000     0.000000000000     0          
H429     H      0.150400000000     0.244200000000     0.000000000000     0          
O430     O      0.063330000000     0.617800000000     0.500000000000     0          
C431     C      0.123990000000     0.682980000000     0.500000000000     0          
H432     H      0.093600000000     0.691200000000     0.500000000000     0          
C433     C      0.158350000000     0.713720000000     0.500000000000     0          
H434     H      0.150400000000     0.744200000000     0.500000000000     0          
O435     O      0.563330000000     0.117800000000     0.500000000000     0          
C436     C      0.623990000000     0.182980000000     0.500000000000     0          
H437     H      0.593600000000     0.191200000000     0.500000000000     0          
C438     C      0.658350000000     0.213720000000     0.500000000000     0          
H439     H      0.650400000000     0.244200000000     0.500000000000     0          
O440     O      0.563330000000     0.617800000000     0.000000000000     0          
C441     C      0.623990000000     0.682980000000     0.000000000000     0          
H442     H      0.593600000000     0.691200000000     0.000000000000     0          
C443     C      0.658350000000     0.713720000000     0.000000000000     0          
H444     H      0.650400000000     0.744200000000     0.000000000000     0          
O445     O      0.063330000000     0.882200000000     0.000000000000     0          
C446     C      0.123990000000     0.817020000000     0.000000000000     0          
H447     H      0.093600000000     0.808800000000     0.000000000000     0          
C448     C      0.158350000000     0.786280000000     0.000000000000     0          
H449     H      0.150400000000     0.755800000000     0.000000000000     0          
O450     O      0.063330000000     0.382200000000     0.500000000000     0          
C451     C      0.123990000000     0.317020000000     0.500000000000     0          
H452     H      0.093600000000     0.308800000000     0.500000000000     0          
C453     C      0.158350000000     0.286280000000     0.500000000000     0          
H454     H      0.150400000000     0.255800000000     0.500000000000     0          
O455     O      0.563330000000     0.882200000000     0.500000000000     0          
C456     C      0.623990000000     0.817020000000     0.500000000000     0          
H457     H      0.593600000000     0.808800000000     0.500000000000     0          
C458     C      0.658350000000     0.786280000000     0.500000000000     0          
H459     H      0.650400000000     0.755800000000     0.500000000000     0          
O460     O      0.563330000000     0.382200000000     0.000000000000     0          
C461     C      0.623990000000     0.317020000000     0.000000000000     0          
H462     H      0.593600000000     0.308800000000     0.000000000000     0          
C463     C      0.658350000000     0.286280000000     0.000000000000     0          
H464     H      0.650400000000     0.255800000000     0.000000000000     0          
O465     O      0.936670000000     0.117800000000     0.000000000000     0          
C466     C      0.876010000000     0.182980000000     0.000000000000     0          
H467     H      0.906400000000     0.191200000000     0.000000000000     0          
C468     C      0.841650000000     0.213720000000     0.000000000000     0          
H469     H      0.849600000000     0.244200000000     0.000000000000     0          
O470     O      0.936670000000     0.617800000000     0.500000000000     0          
C471     C      0.876010000000     0.682980000000     0.500000000000     0          
H472     H      0.906400000000     0.691200000000     0.500000000000     0          
C473     C      0.841650000000     0.713720000000     0.500000000000     0          
H474     H      0.849600000000     0.744200000000     0.500000000000     0          
O475     O      0.436670000000     0.117800000000     0.500000000000     0          
C476     C      0.376010000000     0.182980000000     0.500000000000     0          
H477     H      0.406400000000     0.191200000000     0.500000000000     0          
C478     C      0.341650000000     0.213720000000     0.500000000000     0          
H479     H      0.349600000000     0.244200000000     0.500000000000     0          
O480     O      0.436670000000     0.617800000000     0.000000000000     0          
C481     C      0.376010000000     0.682980000000     0.000000000000     0          
H482     H      0.406400000000     0.691200000000     0.000000000000     0          
C483     C      0.341650000000     0.713720000000     0.000000000000     0          
H484     H      0.349600000000     0.744200000000     0.000000000000     0          
O485     O      0.936670000000     0.882200000000     0.000000000000     0          
C486     C      0.876010000000     0.817020000000     0.000000000000     0          
H487     H      0.906400000000     0.808800000000     0.000000000000     0          
C488     C      0.841650000000     0.786280000000     0.000000000000     0          
H489     H      0.849600000000     0.755800000000     0.000000000000     0          
O490     O      0.936670000000     0.382200000000     0.500000000000     0          
C491     C      0.876010000000     0.317020000000     0.500000000000     0          
H492     H      0.906400000000     0.308800000000     0.500000000000     0          
C493     C      0.841650000000     0.286280000000     0.500000000000     0          
H494     H      0.849600000000     0.255800000000     0.500000000000     0          
O495     O      0.436670000000     0.882200000000     0.500000000000     0          
C496     C      0.376010000000     0.817020000000     0.500000000000     0          
H497     H      0.406400000000     0.808800000000     0.500000000000     0          
C498     C      0.341650000000     0.786280000000     0.500000000000     0          
H499     H      0.349600000000     0.755800000000     0.500000000000     0          
O500     O      0.436670000000     0.382200000000     0.000000000000     0          
C501     C      0.376010000000     0.317020000000     0.000000000000     0          
H502     H      0.406400000000     0.308800000000     0.000000000000     0          
C503     C      0.341650000000     0.286280000000     0.000000000000     0          
H504     H      0.349600000000     0.255800000000     0.000000000000     0          
O505     O      0.039750000000     0.039750000000     0.039750000000     0          
O506     O      0.039750000000     0.539750000000     0.539750000000     0          
O507     O      0.539750000000     0.039750000000     0.539750000000     0          
O508     O      0.539750000000     0.539750000000     0.039750000000     0          
O509     O      0.960250000000     0.960250000000     0.039750000000     0          
O510     O      0.960250000000     0.460250000000     0.539750000000     0          
O511     O      0.460250000000     0.960250000000     0.539750000000     0          
O512     O      0.460250000000     0.460250000000     0.039750000000     0          
O513     O      0.960250000000     0.039750000000     0.960250000000     0          
O514     O      0.960250000000     0.539750000000     0.460250000000     0          
O515     O      0.460250000000     0.039750000000     0.460250000000     0          
O516     O      0.460250000000     0.539750000000     0.960250000000     0          
O517     O      0.039750000000     0.960250000000     0.960250000000     0          
O518     O      0.039750000000     0.460250000000     0.460250000000     0          
O519     O      0.539750000000     0.960250000000     0.460250000000     0          
O520     O      0.539750000000     0.460250000000     0.960250000000     0          
O521     O      0.039750000000     0.039750000000     0.960250000000     0          
O522     O      0.039750000000     0.539750000000     0.460250000000     0          
O523     O      0.539750000000     0.039750000000     0.460250000000     0          
O524     O      0.539750000000     0.539750000000     0.960250000000     0          
O525     O      0.960250000000     0.960250000000     0.960250000000     0          
O526     O      0.960250000000     0.460250000000     0.460250000000     0          
O527     O      0.460250000000     0.960250000000     0.460250000000     0          
O528     O      0.460250000000     0.460250000000     0.960250000000     0          
O529     O      0.039750000000     0.960250000000     0.039750000000     0          
O530     O      0.039750000000     0.460250000000     0.539750000000     0          
O531     O      0.539750000000     0.960250000000     0.539750000000     0          
O532     O      0.539750000000     0.460250000000     0.039750000000     0          
O533     O      0.960250000000     0.039750000000     0.039750000000     0          
O534     O      0.960250000000     0.539750000000     0.539750000000     0          
O535     O      0.460250000000     0.039750000000     0.539750000000     0          
O536     O      0.460250000000     0.539750000000     0.039750000000     0          
C537     C      0.000000000000     0.104130000000     0.104130000000     0          
C538     C      0.000000000000     0.138470000000     0.138470000000     0          
C539     C      0.000000000000     0.203620000000     0.203620000000     0          
C540     C      0.000000000000     0.237690000000     0.237690000000     0          
C541     C      0.000000000000     0.604130000000     0.604130000000     0          
C542     C      0.000000000000     0.638470000000     0.638470000000     0          
C543     C      0.000000000000     0.703620000000     0.703620000000     0          
C544     C      0.000000000000     0.737690000000     0.737690000000     0          
C545     C      0.500000000000     0.104130000000     0.604130000000     0          
C546     C      0.500000000000     0.138470000000     0.638470000000     0          
C547     C      0.500000000000     0.203620000000     0.703620000000     0          
C548     C      0.500000000000     0.237690000000     0.737690000000     0          
C549     C      0.500000000000     0.604130000000     0.104130000000     0          
C550     C      0.500000000000     0.638470000000     0.138470000000     0          
C551     C      0.500000000000     0.703620000000     0.203620000000     0          
C552     C      0.500000000000     0.737690000000     0.237690000000     0          
C553     C      0.000000000000     0.895870000000     0.104130000000     0          
C554     C      0.000000000000     0.861530000000     0.138470000000     0          
C555     C      0.000000000000     0.796380000000     0.203620000000     0          
C556     C      0.000000000000     0.762310000000     0.237690000000     0          
C557     C      0.000000000000     0.395870000000     0.604130000000     0          
C558     C      0.000000000000     0.361530000000     0.638470000000     0          
C559     C      0.000000000000     0.296380000000     0.703620000000     0          
C560     C      0.000000000000     0.262310000000     0.737690000000     0          
C561     C      0.500000000000     0.895870000000     0.604130000000     0          
C562     C      0.500000000000     0.861530000000     0.638470000000     0          
C563     C      0.500000000000     0.796380000000     0.703620000000     0          
C564     C      0.500000000000     0.762310000000     0.737690000000     0          
C565     C      0.500000000000     0.395870000000     0.104130000000     0          
C566     C      0.500000000000     0.361530000000     0.138470000000     0          
C567     C      0.500000000000     0.296380000000     0.203620000000     0          
C568     C      0.500000000000     0.262310000000     0.237690000000     0          
C569     C      0.000000000000     0.104130000000     0.895870000000     0          
C570     C      0.000000000000     0.138470000000     0.861530000000     0          
C571     C      0.000000000000     0.203620000000     0.796380000000     0          
C572     C      0.000000000000     0.237690000000     0.762310000000     0          
C573     C      0.000000000000     0.604130000000     0.395870000000     0          
C574     C      0.000000000000     0.638470000000     0.361530000000     0          
C575     C      0.000000000000     0.703620000000     0.296380000000     0          
C576     C      0.000000000000     0.737690000000     0.262310000000     0          
C577     C      0.500000000000     0.104130000000     0.395870000000     0          
C578     C      0.500000000000     0.138470000000     0.361530000000     0          
C579     C      0.500000000000     0.203620000000     0.296380000000     0          
C580     C      0.500000000000     0.237690000000     0.262310000000     0          
C581     C      0.500000000000     0.604130000000     0.895870000000     0          
C582     C      0.500000000000     0.638470000000     0.861530000000     0          
C583     C      0.500000000000     0.703620000000     0.796380000000     0          
C584     C      0.500000000000     0.737690000000     0.762310000000     0          
C585     C      0.000000000000     0.895870000000     0.895870000000     0          
C586     C      0.000000000000     0.861530000000     0.861530000000     0          
C587     C      0.000000000000     0.796380000000     0.796380000000     0          
C588     C      0.000000000000     0.762310000000     0.762310000000     0          
C589     C      0.000000000000     0.395870000000     0.395870000000     0          
C590     C      0.000000000000     0.361530000000     0.361530000000     0          
C591     C      0.000000000000     0.296380000000     0.296380000000     0          
C592     C      0.000000000000     0.262310000000     0.262310000000     0          
C593     C      0.500000000000     0.895870000000     0.395870000000     0          
C594     C      0.500000000000     0.861530000000     0.361530000000     0          
C595     C      0.500000000000     0.796380000000     0.296380000000     0          
C596     C      0.500000000000     0.762310000000     0.262310000000     0          
C597     C      0.500000000000     0.395870000000     0.895870000000     0          
C598     C      0.500000000000     0.361530000000     0.861530000000     0          
C599     C      0.500000000000     0.296380000000     0.796380000000     0          
C600     C      0.500000000000     0.262310000000     0.762310000000     0          
C601     C      0.104130000000     0.000000000000     0.104130000000     0          
C602     C      0.138470000000     0.000000000000     0.138470000000     0          
C603     C      0.203620000000     0.000000000000     0.203620000000     0          
C604     C      0.237690000000     0.000000000000     0.237690000000     0          
C605     C      0.104130000000     0.500000000000     0.604130000000     0          
C606     C      0.138470000000     0.500000000000     0.638470000000     0          
C607     C      0.203620000000     0.500000000000     0.703620000000     0          
C608     C      0.237690000000     0.500000000000     0.737690000000     0          
C609     C      0.604130000000     0.000000000000     0.604130000000     0          
C610     C      0.638470000000     0.000000000000     0.638470000000     0          
C611     C      0.703620000000     0.000000000000     0.703620000000     0          
C612     C      0.737690000000     0.000000000000     0.737690000000     0          
C613     C      0.604130000000     0.500000000000     0.104130000000     0          
C614     C      0.638470000000     0.500000000000     0.138470000000     0          
C615     C      0.703620000000     0.500000000000     0.203620000000     0          
C616     C      0.737690000000     0.500000000000     0.237690000000     0          
C617     C      0.104130000000     0.000000000000     0.895870000000     0          
C618     C      0.138470000000     0.000000000000     0.861530000000     0          
C619     C      0.203620000000     0.000000000000     0.796380000000     0          
C620     C      0.237690000000     0.000000000000     0.762310000000     0          
C621     C      0.104130000000     0.500000000000     0.395870000000     0          
C622     C      0.138470000000     0.500000000000     0.361530000000     0          
C623     C      0.203620000000     0.500000000000     0.296380000000     0          
C624     C      0.237690000000     0.500000000000     0.262310000000     0          
C625     C      0.604130000000     0.000000000000     0.395870000000     0          
C626     C      0.638470000000     0.000000000000     0.361530000000     0          
C627     C      0.703620000000     0.000000000000     0.296380000000     0          
C628     C      0.737690000000     0.000000000000     0.262310000000     0          
C629     C      0.604130000000     0.500000000000     0.895870000000     0          
C630     C      0.638470000000     0.500000000000     0.861530000000     0          
C631     C      0.703620000000     0.500000000000     0.796380000000     0          
C632     C      0.737690000000     0.500000000000     0.762310000000     0          
C633     C      0.895870000000     0.000000000000     0.104130000000     0          
C634     C      0.861530000000     0.000000000000     0.138470000000     0          
C635     C      0.796380000000     0.000000000000     0.203620000000     0          
C636     C      0.762310000000     0.000000000000     0.237690000000     0          
C637     C      0.895870000000     0.500000000000     0.604130000000     0          
C638     C      0.861530000000     0.500000000000     0.638470000000     0          
C639     C      0.796380000000     0.500000000000     0.703620000000     0          
C640     C      0.762310000000     0.500000000000     0.737690000000     0          
C641     C      0.395870000000     0.000000000000     0.604130000000     0          
C642     C      0.361530000000     0.000000000000     0.638470000000     0          
C643     C      0.296380000000     0.000000000000     0.703620000000     0          
C644     C      0.262310000000     0.000000000000     0.737690000000     0          
C645     C      0.395870000000     0.500000000000     0.104130000000     0          
C646     C      0.361530000000     0.500000000000     0.138470000000     0          
C647     C      0.296380000000     0.500000000000     0.203620000000     0          
C648     C      0.262310000000     0.500000000000     0.237690000000     0          
C649     C      0.895870000000     0.000000000000     0.895870000000     0          
C650     C      0.861530000000     0.000000000000     0.861530000000     0          
C651     C      0.796380000000     0.000000000000     0.796380000000     0          
C652     C      0.762310000000     0.000000000000     0.762310000000     0          
C653     C      0.895870000000     0.500000000000     0.395870000000     0          
C654     C      0.861530000000     0.500000000000     0.361530000000     0          
C655     C      0.796380000000     0.500000000000     0.296380000000     0          
C656     C      0.762310000000     0.500000000000     0.262310000000     0          
C657     C      0.395870000000     0.000000000000     0.395870000000     0          
C658     C      0.361530000000     0.000000000000     0.361530000000     0          
C659     C      0.296380000000     0.000000000000     0.296380000000     0          
C660     C      0.262310000000     0.000000000000     0.262310000000     0          
C661     C      0.395870000000     0.500000000000     0.895870000000     0          
C662     C      0.361530000000     0.500000000000     0.861530000000     0          
C663     C      0.296380000000     0.500000000000     0.796380000000     0          
C664     C      0.262310000000     0.500000000000     0.762310000000     0          
C665     C      0.104130000000     0.104130000000     0.000000000000     0          
C666     C      0.138470000000     0.138470000000     0.000000000000     0          
C667     C      0.203620000000     0.203620000000     0.000000000000     0          
C668     C      0.237690000000     0.237690000000     0.000000000000     0          
C669     C      0.104130000000     0.604130000000     0.500000000000     0          
C670     C      0.138470000000     0.638470000000     0.500000000000     0          
C671     C      0.203620000000     0.703620000000     0.500000000000     0          
C672     C      0.237690000000     0.737690000000     0.500000000000     0          
C673     C      0.604130000000     0.104130000000     0.500000000000     0          
C674     C      0.638470000000     0.138470000000     0.500000000000     0          
C675     C      0.703620000000     0.203620000000     0.500000000000     0          
C676     C      0.737690000000     0.237690000000     0.500000000000     0          
C677     C      0.604130000000     0.604130000000     0.000000000000     0          
C678     C      0.638470000000     0.638470000000     0.000000000000     0          
C679     C      0.703620000000     0.703620000000     0.000000000000     0          
C680     C      0.737690000000     0.737690000000     0.000000000000     0          
C681     C      0.895870000000     0.104130000000     0.000000000000     0          
C682     C      0.861530000000     0.138470000000     0.000000000000     0          
C683     C      0.796380000000     0.203620000000     0.000000000000     0          
C684     C      0.762310000000     0.237690000000     0.000000000000     0          
C685     C      0.895870000000     0.604130000000     0.500000000000     0          
C686     C      0.861530000000     0.638470000000     0.500000000000     0          
C687     C      0.796380000000     0.703620000000     0.500000000000     0          
C688     C      0.762310000000     0.737690000000     0.500000000000     0          
C689     C      0.395870000000     0.104130000000     0.500000000000     0          
C690     C      0.361530000000     0.138470000000     0.500000000000     0          
C691     C      0.296380000000     0.203620000000     0.500000000000     0          
C692     C      0.262310000000     0.237690000000     0.500000000000     0          
C693     C      0.395870000000     0.604130000000     0.000000000000     0          
C694     C      0.361530000000     0.638470000000     0.000000000000     0          
C695     C      0.296380000000     0.703620000000     0.000000000000     0          
C696     C      0.262310000000     0.737690000000     0.000000000000     0          
C697     C      0.104130000000     0.895870000000     0.000000000000     0          
C698     C      0.138470000000     0.861530000000     0.000000000000     0          
C699     C      0.203620000000     0.796380000000     0.000000000000     0          
C700     C      0.237690000000     0.762310000000     0.000000000000     0          
C701     C      0.104130000000     0.395870000000     0.500000000000     0          
C702     C      0.138470000000     0.361530000000     0.500000000000     0          
C703     C      0.203620000000     0.296380000000     0.500000000000     0          
C704     C      0.237690000000     0.262310000000     0.500000000000     0          
C705     C      0.604130000000     0.895870000000     0.500000000000     0          
C706     C      0.638470000000     0.861530000000     0.500000000000     0          
C707     C      0.703620000000     0.796380000000     0.500000000000     0          
C708     C      0.737690000000     0.762310000000     0.500000000000     0          
C709     C      0.604130000000     0.395870000000     0.000000000000     0          
C710     C      0.638470000000     0.361530000000     0.000000000000     0          
C711     C      0.703620000000     0.296380000000     0.000000000000     0          
C712     C      0.737690000000     0.262310000000     0.000000000000     0          
C713     C      0.895870000000     0.895870000000     0.000000000000     0          
C714     C      0.861530000000     0.861530000000     0.000000000000     0          
C715     C      0.796380000000     0.796380000000     0.000000000000     0          
C716     C      0.762310000000     0.762310000000     0.000000000000     0          
C717     C      0.895870000000     0.395870000000     0.500000000000     0          
C718     C      0.861530000000     0.361530000000     0.500000000000     0          
C719     C      0.796380000000     0.296380000000     0.500000000000     0          
C720     C      0.762310000000     0.262310000000     0.500000000000     0          
C721     C      0.395870000000     0.895870000000     0.500000000000     0          
C722     C      0.361530000000     0.861530000000     0.500000000000     0          
C723     C      0.296380000000     0.796380000000     0.500000000000     0          
C724     C      0.262310000000     0.762310000000     0.500000000000     0          
C725     C      0.395870000000     0.395870000000     0.000000000000     0          
C726     C      0.361530000000     0.361530000000     0.000000000000     0          
C727     C      0.296380000000     0.296380000000     0.000000000000     0          
C728     C      0.262310000000     0.262310000000     0.000000000000     0          


