data_YEFJOL

_audit_creation_method RASPA-1.0
_audit_creation_date 2020-11-2
_audit_author_name 'Rocio Bueno-Perez'

_cell_length_a    32.699
_cell_length_b    32.699
_cell_length_c    32.699
_cell_angle_alpha 90
_cell_angle_beta  90
_cell_angle_gamma 90
_cell_volume      34962.6

_symmetry_cell_setting          triclinic
_symmetry_space_group_name_Hall 'P 1'
_symmetry_space_group_name_H-M  'P 1'
_symmetry_Int_Tables_number     1

_symmetry_equiv_pos_as_xyz 'x,y,z'

loop_
_atom_site_label
_atom_site_type_symbol
_atom_site_fract_x
_atom_site_fract_y
_atom_site_fract_z
_atom_site_charge
C1       C      0.748200000000     0.467700000000     0.720400000000     0          
O2       O      0.754200000000     0.433800000000     0.697200000000     0          
C3       C      0.777000000000     0.398000000000     0.704000000000     0          
C4       C      0.248200000000     0.467700000000     0.220400000000     0          
O5       O      0.254200000000     0.433800000000     0.197200000000     0          
C6       C      0.277000000000     0.398000000000     0.204000000000     0          
C7       C      0.751800000000     0.532300000000     0.220400000000     0          
C8       C      0.751800000000     0.032300000000     0.720400000000     0          
O9       O      0.745800000000     0.066200000000     0.697200000000     0          
C10      C      0.723000000000     0.102000000000     0.704000000000     0          
C11      C      0.251800000000     0.967700000000     0.779600000000     0          
O12      O      0.245800000000     0.933800000000     0.802800000000     0          
C13      C      0.223000000000     0.898000000000     0.796000000000     0          
C14      C      0.751800000000     0.967700000000     0.279600000000     0          
C15      C      0.248200000000     0.532300000000     0.779600000000     0          
O16      O      0.254200000000     0.566200000000     0.802800000000     0          
C17      C      0.277000000000     0.602000000000     0.796000000000     0          
C18      C      0.248200000000     0.032300000000     0.279600000000     0          
C19      C      0.220400000000     0.748200000000     0.967700000000     0          
O20      O      0.197200000000     0.754200000000     0.933800000000     0          
C21      C      0.204000000000     0.777000000000     0.898000000000     0          
C22      C      0.220400000000     0.248200000000     0.467700000000     0          
O23      O      0.197200000000     0.254200000000     0.433800000000     0          
C24      C      0.204000000000     0.277000000000     0.398000000000     0          
C25      C      0.720400000000     0.251800000000     0.532300000000     0          
O26      O      0.697200000000     0.245800000000     0.566200000000     0          
C27      C      0.704000000000     0.223000000000     0.602000000000     0          
C28      C      0.720400000000     0.751800000000     0.032300000000     0          
C29      C      0.220400000000     0.251800000000     0.032300000000     0          
O30      O      0.197200000000     0.245800000000     0.066200000000     0          
C31      C      0.204000000000     0.223000000000     0.102000000000     0          
C32      C      0.220400000000     0.751800000000     0.532300000000     0          
O33      O      0.197200000000     0.745800000000     0.566200000000     0          
C34      C      0.204000000000     0.723000000000     0.602000000000     0          
C35      C      0.779600000000     0.251800000000     0.967700000000     0          
C36      C      0.779600000000     0.751800000000     0.467700000000     0          
O37      O      0.802800000000     0.745800000000     0.433800000000     0          
C38      C      0.796000000000     0.723000000000     0.398000000000     0          
C39      C      0.467700000000     0.720400000000     0.748200000000     0          
C40      C      0.467700000000     0.220400000000     0.248200000000     0          
C41      C      0.032300000000     0.720400000000     0.751800000000     0          
O42      O      0.066200000000     0.697200000000     0.745800000000     0          
C43      C      0.102000000000     0.704000000000     0.723000000000     0          
C44      C      0.032300000000     0.220400000000     0.251800000000     0          
O45      O      0.066200000000     0.197200000000     0.245800000000     0          
C46      C      0.102000000000     0.204000000000     0.223000000000     0          
C47      C      0.967700000000     0.279600000000     0.751800000000     0          
O48      O      0.933800000000     0.302800000000     0.745800000000     0          
C49      C      0.898000000000     0.296000000000     0.723000000000     0          
C50      C      0.967700000000     0.779600000000     0.251800000000     0          
O51      O      0.933800000000     0.802800000000     0.245800000000     0          
C52      C      0.898000000000     0.796000000000     0.223000000000     0          
C53      C      0.532300000000     0.279600000000     0.748200000000     0          
C54      C      0.532300000000     0.779600000000     0.248200000000     0          
O55      O      0.566200000000     0.802800000000     0.254200000000     0          
C56      C      0.602000000000     0.796000000000     0.277000000000     0          
C57      C      0.967700000000     0.748200000000     0.779600000000     0          
C58      C      0.967700000000     0.248200000000     0.279600000000     0          
C59      C      0.032300000000     0.251800000000     0.779600000000     0          
C60      C      0.032300000000     0.751800000000     0.279600000000     0          
C61      C      0.467700000000     0.251800000000     0.720400000000     0          
O62      O      0.433800000000     0.245800000000     0.697200000000     0          
C63      C      0.398000000000     0.223000000000     0.704000000000     0          
C64      C      0.467700000000     0.751800000000     0.220400000000     0          
C65      C      0.532300000000     0.748200000000     0.720400000000     0          
O66      O      0.566200000000     0.754200000000     0.697200000000     0          
C67      C      0.602000000000     0.777000000000     0.704000000000     0          
C68      C      0.532300000000     0.248200000000     0.220400000000     0          
O69      O      0.566200000000     0.254200000000     0.197200000000     0          
C70      C      0.602000000000     0.277000000000     0.204000000000     0          
C71      C      0.248200000000     0.720400000000     0.032300000000     0          
C72      C      0.248200000000     0.220400000000     0.532300000000     0          
C73      C      0.751800000000     0.279600000000     0.032300000000     0          
O74      O      0.745800000000     0.302800000000     0.066200000000     0          
C75      C      0.723000000000     0.296000000000     0.102000000000     0          
C76      C      0.751800000000     0.779600000000     0.532300000000     0          
C77      C      0.748200000000     0.279600000000     0.467700000000     0          
C78      C      0.748200000000     0.779600000000     0.967700000000     0          
O79      O      0.754200000000     0.802800000000     0.933800000000     0          
C80      C      0.777000000000     0.796000000000     0.898000000000     0          
C81      C      0.248200000000     0.279600000000     0.967700000000     0          
C82      C      0.248200000000     0.779600000000     0.467700000000     0          
C83      C      0.220400000000     0.467700000000     0.751800000000     0          
C84      C      0.220400000000     0.967700000000     0.251800000000     0          
O85      O      0.197200000000     0.933800000000     0.245800000000     0          
C86      C      0.204000000000     0.898000000000     0.223000000000     0          
C87      C      0.720400000000     0.532300000000     0.748200000000     0          
C88      C      0.220400000000     0.532300000000     0.248200000000     0          
C89      C      0.779600000000     0.467700000000     0.248200000000     0          
O90      O      0.802800000000     0.433800000000     0.254200000000     0          
C91      C      0.796000000000     0.398000000000     0.277000000000     0          
C92      C      0.779600000000     0.967700000000     0.748200000000     0          
C93      C      0.279600000000     0.032300000000     0.751800000000     0          
C94      C      0.779600000000     0.032300000000     0.251800000000     0          
O95      O      0.802800000000     0.066200000000     0.245800000000     0          
C96      C      0.796000000000     0.102000000000     0.223000000000     0          
C97      C      0.251800000000     0.532300000000     0.279600000000     0          
O98      O      0.245800000000     0.566200000000     0.302800000000     0          
C99      C      0.223000000000     0.602000000000     0.296000000000     0          
C100     C      0.751800000000     0.532300000000     0.779600000000     0          
O101     O      0.745800000000     0.566200000000     0.802800000000     0          
C102     C      0.723000000000     0.602000000000     0.796000000000     0          
C103     C      0.748200000000     0.467700000000     0.279600000000     0          
C104     C      0.748200000000     0.967700000000     0.779600000000     0          
O105     O      0.754200000000     0.933800000000     0.802800000000     0          
C106     C      0.777000000000     0.898000000000     0.796000000000     0          
C107     C      0.748200000000     0.032300000000     0.220400000000     0          
C108     C      0.248200000000     0.032300000000     0.720400000000     0          
O109     O      0.254200000000     0.066200000000     0.697200000000     0          
C110     C      0.277000000000     0.102000000000     0.704000000000     0          
C111     C      0.251800000000     0.467700000000     0.720400000000     0          
O112     O      0.245800000000     0.433800000000     0.697200000000     0          
C113     C      0.223000000000     0.398000000000     0.704000000000     0          
C114     C      0.251800000000     0.967700000000     0.220400000000     0          
C115     C      0.279600000000     0.251800000000     0.532300000000     0          
O116     O      0.302800000000     0.245800000000     0.566200000000     0          
C117     C      0.296000000000     0.223000000000     0.602000000000     0          
C118     C      0.279600000000     0.751800000000     0.032300000000     0          
O119     O      0.302800000000     0.745800000000     0.066200000000     0          
C120     C      0.296000000000     0.723000000000     0.102000000000     0          
C121     C      0.279600000000     0.748200000000     0.467700000000     0          
O122     O      0.302800000000     0.754200000000     0.433800000000     0          
C123     C      0.296000000000     0.777000000000     0.398000000000     0          
C124     C      0.279600000000     0.248200000000     0.967700000000     0          
O125     O      0.302800000000     0.254200000000     0.933800000000     0          
C126     C      0.296000000000     0.277000000000     0.898000000000     0          
C127     C      0.779600000000     0.748200000000     0.967700000000     0          
C128     C      0.779600000000     0.248200000000     0.467700000000     0          
O129     O      0.802800000000     0.254200000000     0.433800000000     0          
C130     C      0.796000000000     0.277000000000     0.398000000000     0          
C131     C      0.720400000000     0.748200000000     0.532300000000     0          
O132     O      0.697200000000     0.754200000000     0.566200000000     0          
C133     C      0.704000000000     0.777000000000     0.602000000000     0          
C134     C      0.720400000000     0.248200000000     0.032300000000     0          
C135     C      0.532300000000     0.279600000000     0.251800000000     0          
C136     C      0.532300000000     0.779600000000     0.751800000000     0          
C137     C      0.967700000000     0.279600000000     0.248200000000     0          
O138     O      0.933800000000     0.302800000000     0.254200000000     0          
C139     C      0.898000000000     0.296000000000     0.277000000000     0          
C140     C      0.967700000000     0.779600000000     0.748200000000     0          
O141     O      0.933800000000     0.802800000000     0.754200000000     0          
C142     C      0.898000000000     0.796000000000     0.777000000000     0          
C143     C      0.032300000000     0.720400000000     0.248200000000     0          
O144     O      0.066200000000     0.697200000000     0.254200000000     0          
C145     C      0.102000000000     0.704000000000     0.277000000000     0          
C146     C      0.032300000000     0.220400000000     0.748200000000     0          
O147     O      0.066200000000     0.197200000000     0.754200000000     0          
C148     C      0.102000000000     0.204000000000     0.777000000000     0          
C149     C      0.467700000000     0.720400000000     0.251800000000     0          
O150     O      0.433800000000     0.697200000000     0.245800000000     0          
C151     C      0.398000000000     0.704000000000     0.223000000000     0          
C152     C      0.467700000000     0.220400000000     0.751800000000     0          
C153     C      0.032300000000     0.251800000000     0.220400000000     0          
C154     C      0.032300000000     0.751800000000     0.720400000000     0          
C155     C      0.967700000000     0.748200000000     0.220400000000     0          
C156     C      0.967700000000     0.248200000000     0.720400000000     0          
C157     C      0.532300000000     0.748200000000     0.279600000000     0          
C158     C      0.532300000000     0.248200000000     0.779600000000     0          
O159     O      0.566200000000     0.254200000000     0.802800000000     0          
C160     C      0.602000000000     0.277000000000     0.796000000000     0          
C161     C      0.467700000000     0.251800000000     0.279600000000     0          
O162     O      0.433800000000     0.245800000000     0.302800000000     0          
C163     C      0.398000000000     0.223000000000     0.296000000000     0          
C164     C      0.467700000000     0.751800000000     0.779600000000     0          
O165     O      0.433800000000     0.745800000000     0.802800000000     0          
C166     C      0.398000000000     0.723000000000     0.796000000000     0          
C167     C      0.251800000000     0.279600000000     0.467700000000     0          
C168     C      0.251800000000     0.779600000000     0.967700000000     0          
C169     C      0.748200000000     0.720400000000     0.467700000000     0          
C170     C      0.748200000000     0.220400000000     0.967700000000     0          
O171     O      0.754200000000     0.197200000000     0.933800000000     0          
C172     C      0.777000000000     0.204000000000     0.898000000000     0          
C173     C      0.251800000000     0.720400000000     0.532300000000     0          
C174     C      0.251800000000     0.220400000000     0.032300000000     0          
C175     C      0.751800000000     0.720400000000     0.032300000000     0          
O176     O      0.745800000000     0.697200000000     0.066200000000     0          
C177     C      0.723000000000     0.704000000000     0.102000000000     0          
C178     C      0.751800000000     0.220400000000     0.532300000000     0          
C179     C      0.279600000000     0.532300000000     0.748200000000     0          
C180     C      0.279600000000     0.032300000000     0.248200000000     0          
O181     O      0.302800000000     0.066200000000     0.254200000000     0          
C182     C      0.296000000000     0.102000000000     0.277000000000     0          
C183     C      0.279600000000     0.467700000000     0.251800000000     0          
C184     C      0.779600000000     0.467700000000     0.751800000000     0          
C185     C      0.720400000000     0.532300000000     0.251800000000     0          
O186     O      0.697200000000     0.566200000000     0.245800000000     0          
C187     C      0.704000000000     0.602000000000     0.223000000000     0          
C188     C      0.720400000000     0.032300000000     0.751800000000     0          
C189     C      0.720400000000     0.967700000000     0.248200000000     0          
O190     O      0.697200000000     0.933800000000     0.254200000000     0          
C191     C      0.704000000000     0.898000000000     0.277000000000     0          
C192     C      0.220400000000     0.967700000000     0.748200000000     0          
Zr193    Zr     0.500000000000     0.500000000000     0.575480000000     0          
Zr194    Zr     0.500000000000     0.000000000000     0.075480000000     0          
Zr195    Zr     0.000000000000     0.500000000000     0.075480000000     0          
Zr196    Zr     0.000000000000     0.000000000000     0.575480000000     0          
Zr197    Zr     0.500000000000     0.500000000000     0.424520000000     0          
Zr198    Zr     0.500000000000     0.000000000000     0.924520000000     0          
Zr199    Zr     0.000000000000     0.500000000000     0.924520000000     0          
Zr200    Zr     0.000000000000     0.000000000000     0.424520000000     0          
Zr201    Zr     0.575480000000     0.500000000000     0.500000000000     0          
Zr202    Zr     0.575480000000     0.000000000000     0.000000000000     0          
Zr203    Zr     0.075480000000     0.500000000000     0.000000000000     0          
Zr204    Zr     0.075480000000     0.000000000000     0.500000000000     0          
Zr205    Zr     0.424520000000     0.500000000000     0.500000000000     0          
Zr206    Zr     0.424520000000     0.000000000000     0.000000000000     0          
Zr207    Zr     0.924520000000     0.500000000000     0.000000000000     0          
Zr208    Zr     0.924520000000     0.000000000000     0.500000000000     0          
Zr209    Zr     0.500000000000     0.575480000000     0.500000000000     0          
Zr210    Zr     0.500000000000     0.075480000000     0.000000000000     0          
Zr211    Zr     0.000000000000     0.575480000000     0.000000000000     0          
Zr212    Zr     0.000000000000     0.075480000000     0.500000000000     0          
Zr213    Zr     0.500000000000     0.424520000000     0.500000000000     0          
Zr214    Zr     0.500000000000     0.924520000000     0.000000000000     0          
Zr215    Zr     0.000000000000     0.424520000000     0.000000000000     0          
Zr216    Zr     0.000000000000     0.924520000000     0.500000000000     0          
O217     O      0.558550000000     0.500000000000     0.609230000000     0          
C218     C      0.615500000000     0.500000000000     0.668100000000     0          
C219     C      0.648000000000     0.500000000000     0.697500000000     0          
O220     O      0.558550000000     0.000000000000     0.109230000000     0          
C221     C      0.615500000000     0.000000000000     0.168100000000     0          
C222     C      0.648000000000     0.000000000000     0.197500000000     0          
O223     O      0.058550000000     0.500000000000     0.109230000000     0          
C224     C      0.115500000000     0.500000000000     0.168100000000     0          
C225     C      0.148000000000     0.500000000000     0.197500000000     0          
O226     O      0.058550000000     0.000000000000     0.609230000000     0          
C227     C      0.115500000000     0.000000000000     0.668100000000     0          
C228     C      0.148000000000     0.000000000000     0.697500000000     0          
O229     O      0.441450000000     0.500000000000     0.609230000000     0          
C230     C      0.384500000000     0.500000000000     0.668100000000     0          
C231     C      0.352000000000     0.500000000000     0.697500000000     0          
O232     O      0.441450000000     0.000000000000     0.109230000000     0          
C233     C      0.384500000000     0.000000000000     0.168100000000     0          
C234     C      0.352000000000     0.000000000000     0.197500000000     0          
O235     O      0.941450000000     0.500000000000     0.109230000000     0          
C236     C      0.884500000000     0.500000000000     0.168100000000     0          
C237     C      0.852000000000     0.500000000000     0.197500000000     0          
O238     O      0.941450000000     0.000000000000     0.609230000000     0          
C239     C      0.884500000000     0.000000000000     0.668100000000     0          
C240     C      0.852000000000     0.000000000000     0.697500000000     0          
O241     O      0.441450000000     0.500000000000     0.390770000000     0          
C242     C      0.384500000000     0.500000000000     0.331900000000     0          
C243     C      0.352000000000     0.500000000000     0.302500000000     0          
O244     O      0.441450000000     0.000000000000     0.890770000000     0          
C245     C      0.384500000000     0.000000000000     0.831900000000     0          
C246     C      0.352000000000     0.000000000000     0.802500000000     0          
O247     O      0.941450000000     0.500000000000     0.890770000000     0          
C248     C      0.884500000000     0.500000000000     0.831900000000     0          
C249     C      0.852000000000     0.500000000000     0.802500000000     0          
O250     O      0.941450000000     0.000000000000     0.390770000000     0          
C251     C      0.884500000000     0.000000000000     0.331900000000     0          
C252     C      0.852000000000     0.000000000000     0.302500000000     0          
O253     O      0.558550000000     0.500000000000     0.390770000000     0          
C254     C      0.615500000000     0.500000000000     0.331900000000     0          
C255     C      0.648000000000     0.500000000000     0.302500000000     0          
O256     O      0.558550000000     0.000000000000     0.890770000000     0          
C257     C      0.615500000000     0.000000000000     0.831900000000     0          
C258     C      0.648000000000     0.000000000000     0.802500000000     0          
O259     O      0.058550000000     0.500000000000     0.890770000000     0          
C260     C      0.115500000000     0.500000000000     0.831900000000     0          
C261     C      0.148000000000     0.500000000000     0.802500000000     0          
O262     O      0.058550000000     0.000000000000     0.390770000000     0          
C263     C      0.115500000000     0.000000000000     0.331900000000     0          
C264     C      0.148000000000     0.000000000000     0.302500000000     0          
O265     O      0.609230000000     0.558550000000     0.500000000000     0          
C266     C      0.668100000000     0.615500000000     0.500000000000     0          
C267     C      0.697500000000     0.648000000000     0.500000000000     0          
O268     O      0.609230000000     0.058550000000     0.000000000000     0          
C269     C      0.668100000000     0.115500000000     0.000000000000     0          
C270     C      0.697500000000     0.148000000000     0.000000000000     0          
O271     O      0.109230000000     0.558550000000     0.000000000000     0          
C272     C      0.168100000000     0.615500000000     0.000000000000     0          
C273     C      0.197500000000     0.648000000000     0.000000000000     0          
O274     O      0.109230000000     0.058550000000     0.500000000000     0          
C275     C      0.168100000000     0.115500000000     0.500000000000     0          
C276     C      0.197500000000     0.148000000000     0.500000000000     0          
O277     O      0.609230000000     0.441450000000     0.500000000000     0          
C278     C      0.668100000000     0.384500000000     0.500000000000     0          
C279     C      0.697500000000     0.352000000000     0.500000000000     0          
O280     O      0.609230000000     0.941450000000     0.000000000000     0          
C281     C      0.668100000000     0.884500000000     0.000000000000     0          
C282     C      0.697500000000     0.852000000000     0.000000000000     0          
O283     O      0.109230000000     0.441450000000     0.000000000000     0          
C284     C      0.168100000000     0.384500000000     0.000000000000     0          
C285     C      0.197500000000     0.352000000000     0.000000000000     0          
O286     O      0.109230000000     0.941450000000     0.500000000000     0          
C287     C      0.168100000000     0.884500000000     0.500000000000     0          
C288     C      0.197500000000     0.852000000000     0.500000000000     0          
O289     O      0.390770000000     0.441450000000     0.500000000000     0          
C290     C      0.331900000000     0.384500000000     0.500000000000     0          
C291     C      0.302500000000     0.352000000000     0.500000000000     0          
O292     O      0.390770000000     0.941450000000     0.000000000000     0          
C293     C      0.331900000000     0.884500000000     0.000000000000     0          
C294     C      0.302500000000     0.852000000000     0.000000000000     0          
O295     O      0.890770000000     0.441450000000     0.000000000000     0          
C296     C      0.831900000000     0.384500000000     0.000000000000     0          
C297     C      0.802500000000     0.352000000000     0.000000000000     0          
O298     O      0.890770000000     0.941450000000     0.500000000000     0          
C299     C      0.831900000000     0.884500000000     0.500000000000     0          
C300     C      0.802500000000     0.852000000000     0.500000000000     0          
O301     O      0.390770000000     0.558550000000     0.500000000000     0          
C302     C      0.331900000000     0.615500000000     0.500000000000     0          
C303     C      0.302500000000     0.648000000000     0.500000000000     0          
O304     O      0.390770000000     0.058550000000     0.000000000000     0          
C305     C      0.331900000000     0.115500000000     0.000000000000     0          
C306     C      0.302500000000     0.148000000000     0.000000000000     0          
O307     O      0.890770000000     0.558550000000     0.000000000000     0          
C308     C      0.831900000000     0.615500000000     0.000000000000     0          
C309     C      0.802500000000     0.648000000000     0.000000000000     0          
O310     O      0.890770000000     0.058550000000     0.500000000000     0          
C311     C      0.831900000000     0.115500000000     0.500000000000     0          
C312     C      0.802500000000     0.148000000000     0.500000000000     0          
O313     O      0.500000000000     0.609230000000     0.558550000000     0          
C314     C      0.500000000000     0.668100000000     0.615500000000     0          
C315     C      0.500000000000     0.697500000000     0.648000000000     0          
O316     O      0.500000000000     0.109230000000     0.058550000000     0          
C317     C      0.500000000000     0.168100000000     0.115500000000     0          
C318     C      0.500000000000     0.197500000000     0.148000000000     0          
O319     O      0.000000000000     0.609230000000     0.058550000000     0          
C320     C      0.000000000000     0.668100000000     0.115500000000     0          
C321     C      0.000000000000     0.697500000000     0.148000000000     0          
O322     O      0.000000000000     0.109230000000     0.558550000000     0          
C323     C      0.000000000000     0.168100000000     0.615500000000     0          
C324     C      0.000000000000     0.197500000000     0.648000000000     0          
O325     O      0.500000000000     0.609230000000     0.441450000000     0          
C326     C      0.500000000000     0.668100000000     0.384500000000     0          
C327     C      0.500000000000     0.697500000000     0.352000000000     0          
O328     O      0.500000000000     0.109230000000     0.941450000000     0          
C329     C      0.500000000000     0.168100000000     0.884500000000     0          
C330     C      0.500000000000     0.197500000000     0.852000000000     0          
O331     O      0.000000000000     0.609230000000     0.941450000000     0          
C332     C      0.000000000000     0.668100000000     0.884500000000     0          
C333     C      0.000000000000     0.697500000000     0.852000000000     0          
O334     O      0.000000000000     0.109230000000     0.441450000000     0          
C335     C      0.000000000000     0.168100000000     0.384500000000     0          
C336     C      0.000000000000     0.197500000000     0.352000000000     0          
O337     O      0.500000000000     0.390770000000     0.441450000000     0          
C338     C      0.500000000000     0.331900000000     0.384500000000     0          
C339     C      0.500000000000     0.302500000000     0.352000000000     0          
O340     O      0.500000000000     0.890770000000     0.941450000000     0          
C341     C      0.500000000000     0.831900000000     0.884500000000     0          
C342     C      0.500000000000     0.802500000000     0.852000000000     0          
O343     O      0.000000000000     0.390770000000     0.941450000000     0          
C344     C      0.000000000000     0.331900000000     0.884500000000     0          
C345     C      0.000000000000     0.302500000000     0.852000000000     0          
O346     O      0.000000000000     0.890770000000     0.441450000000     0          
C347     C      0.000000000000     0.831900000000     0.384500000000     0          
C348     C      0.000000000000     0.802500000000     0.352000000000     0          
O349     O      0.500000000000     0.390770000000     0.558550000000     0          
C350     C      0.500000000000     0.331900000000     0.615500000000     0          
C351     C      0.500000000000     0.302500000000     0.648000000000     0          
O352     O      0.500000000000     0.890770000000     0.058550000000     0          
C353     C      0.500000000000     0.831900000000     0.115500000000     0          
C354     C      0.500000000000     0.802500000000     0.148000000000     0          
O355     O      0.000000000000     0.390770000000     0.058550000000     0          
C356     C      0.000000000000     0.331900000000     0.115500000000     0          
C357     C      0.000000000000     0.302500000000     0.148000000000     0          
O358     O      0.000000000000     0.890770000000     0.558550000000     0          
C359     C      0.000000000000     0.831900000000     0.615500000000     0          
C360     C      0.000000000000     0.802500000000     0.648000000000     0          
O361     O      0.500000000000     0.558550000000     0.390770000000     0          
C362     C      0.500000000000     0.615500000000     0.331900000000     0          
C363     C      0.500000000000     0.648000000000     0.302500000000     0          
O364     O      0.500000000000     0.058550000000     0.890770000000     0          
C365     C      0.500000000000     0.115500000000     0.831900000000     0          
C366     C      0.500000000000     0.148000000000     0.802500000000     0          
O367     O      0.000000000000     0.558550000000     0.890770000000     0          
C368     C      0.000000000000     0.615500000000     0.831900000000     0          
C369     C      0.000000000000     0.648000000000     0.802500000000     0          
O370     O      0.000000000000     0.058550000000     0.390770000000     0          
C371     C      0.000000000000     0.115500000000     0.331900000000     0          
C372     C      0.000000000000     0.148000000000     0.302500000000     0          
O373     O      0.500000000000     0.441450000000     0.390770000000     0          
C374     C      0.500000000000     0.384500000000     0.331900000000     0          
C375     C      0.500000000000     0.352000000000     0.302500000000     0          
O376     O      0.500000000000     0.941450000000     0.890770000000     0          
C377     C      0.500000000000     0.884500000000     0.831900000000     0          
C378     C      0.500000000000     0.852000000000     0.802500000000     0          
O379     O      0.000000000000     0.441450000000     0.890770000000     0          
C380     C      0.000000000000     0.384500000000     0.831900000000     0          
C381     C      0.000000000000     0.352000000000     0.802500000000     0          
O382     O      0.000000000000     0.941450000000     0.390770000000     0          
C383     C      0.000000000000     0.884500000000     0.331900000000     0          
C384     C      0.000000000000     0.852000000000     0.302500000000     0          
O385     O      0.500000000000     0.441450000000     0.609230000000     0          
C386     C      0.500000000000     0.384500000000     0.668100000000     0          
C387     C      0.500000000000     0.352000000000     0.697500000000     0          
O388     O      0.500000000000     0.941450000000     0.109230000000     0          
C389     C      0.500000000000     0.884500000000     0.168100000000     0          
C390     C      0.500000000000     0.852000000000     0.197500000000     0          
O391     O      0.000000000000     0.441450000000     0.109230000000     0          
C392     C      0.000000000000     0.384500000000     0.168100000000     0          
C393     C      0.000000000000     0.352000000000     0.197500000000     0          
O394     O      0.000000000000     0.941450000000     0.609230000000     0          
C395     C      0.000000000000     0.884500000000     0.668100000000     0          
C396     C      0.000000000000     0.852000000000     0.697500000000     0          
O397     O      0.500000000000     0.558550000000     0.609230000000     0          
C398     C      0.500000000000     0.615500000000     0.668100000000     0          
C399     C      0.500000000000     0.648000000000     0.697500000000     0          
O400     O      0.500000000000     0.058550000000     0.109230000000     0          
C401     C      0.500000000000     0.115500000000     0.168100000000     0          
C402     C      0.500000000000     0.148000000000     0.197500000000     0          
O403     O      0.000000000000     0.558550000000     0.109230000000     0          
C404     C      0.000000000000     0.615500000000     0.168100000000     0          
C405     C      0.000000000000     0.648000000000     0.197500000000     0          
O406     O      0.000000000000     0.058550000000     0.609230000000     0          
C407     C      0.000000000000     0.115500000000     0.668100000000     0          
C408     C      0.000000000000     0.148000000000     0.697500000000     0          
O409     O      0.558550000000     0.609230000000     0.500000000000     0          
C410     C      0.615500000000     0.668100000000     0.500000000000     0          
C411     C      0.648000000000     0.697500000000     0.500000000000     0          
O412     O      0.558550000000     0.109230000000     0.000000000000     0          
C413     C      0.615500000000     0.168100000000     0.000000000000     0          
C414     C      0.648000000000     0.197500000000     0.000000000000     0          
O415     O      0.058550000000     0.609230000000     0.000000000000     0          
C416     C      0.115500000000     0.668100000000     0.000000000000     0          
C417     C      0.148000000000     0.697500000000     0.000000000000     0          
O418     O      0.058550000000     0.109230000000     0.500000000000     0          
C419     C      0.115500000000     0.168100000000     0.500000000000     0          
C420     C      0.148000000000     0.197500000000     0.500000000000     0          
O421     O      0.441450000000     0.609230000000     0.500000000000     0          
C422     C      0.384500000000     0.668100000000     0.500000000000     0          
C423     C      0.352000000000     0.697500000000     0.500000000000     0          
O424     O      0.441450000000     0.109230000000     0.000000000000     0          
C425     C      0.384500000000     0.168100000000     0.000000000000     0          
C426     C      0.352000000000     0.197500000000     0.000000000000     0          
O427     O      0.941450000000     0.609230000000     0.000000000000     0          
C428     C      0.884500000000     0.668100000000     0.000000000000     0          
C429     C      0.852000000000     0.697500000000     0.000000000000     0          
O430     O      0.941450000000     0.109230000000     0.500000000000     0          
C431     C      0.884500000000     0.168100000000     0.500000000000     0          
C432     C      0.852000000000     0.197500000000     0.500000000000     0          
O433     O      0.441450000000     0.390770000000     0.500000000000     0          
C434     C      0.384500000000     0.331900000000     0.500000000000     0          
C435     C      0.352000000000     0.302500000000     0.500000000000     0          
O436     O      0.441450000000     0.890770000000     0.000000000000     0          
C437     C      0.384500000000     0.831900000000     0.000000000000     0          
C438     C      0.352000000000     0.802500000000     0.000000000000     0          
O439     O      0.941450000000     0.390770000000     0.000000000000     0          
C440     C      0.884500000000     0.331900000000     0.000000000000     0          
C441     C      0.852000000000     0.302500000000     0.000000000000     0          
O442     O      0.941450000000     0.890770000000     0.500000000000     0          
C443     C      0.884500000000     0.831900000000     0.500000000000     0          
C444     C      0.852000000000     0.802500000000     0.500000000000     0          
O445     O      0.558550000000     0.390770000000     0.500000000000     0          
C446     C      0.615500000000     0.331900000000     0.500000000000     0          
C447     C      0.648000000000     0.302500000000     0.500000000000     0          
O448     O      0.558550000000     0.890770000000     0.000000000000     0          
C449     C      0.615500000000     0.831900000000     0.000000000000     0          
C450     C      0.648000000000     0.802500000000     0.000000000000     0          
O451     O      0.058550000000     0.390770000000     0.000000000000     0          
C452     C      0.115500000000     0.331900000000     0.000000000000     0          
C453     C      0.148000000000     0.302500000000     0.000000000000     0          
O454     O      0.058550000000     0.890770000000     0.500000000000     0          
C455     C      0.115500000000     0.831900000000     0.500000000000     0          
C456     C      0.148000000000     0.802500000000     0.500000000000     0          
O457     O      0.609230000000     0.500000000000     0.441450000000     0          
C458     C      0.668100000000     0.500000000000     0.384500000000     0          
C459     C      0.697500000000     0.500000000000     0.352000000000     0          
O460     O      0.609230000000     0.000000000000     0.941450000000     0          
C461     C      0.668100000000     0.000000000000     0.884500000000     0          
C462     C      0.697500000000     0.000000000000     0.852000000000     0          
O463     O      0.109230000000     0.500000000000     0.941450000000     0          
C464     C      0.168100000000     0.500000000000     0.884500000000     0          
C465     C      0.197500000000     0.500000000000     0.852000000000     0          
O466     O      0.109230000000     0.000000000000     0.441450000000     0          
C467     C      0.168100000000     0.000000000000     0.384500000000     0          
C468     C      0.197500000000     0.000000000000     0.352000000000     0          
O469     O      0.609230000000     0.500000000000     0.558550000000     0          
C470     C      0.668100000000     0.500000000000     0.615500000000     0          
C471     C      0.697500000000     0.500000000000     0.648000000000     0          
O472     O      0.609230000000     0.000000000000     0.058550000000     0          
C473     C      0.668100000000     0.000000000000     0.115500000000     0          
C474     C      0.697500000000     0.000000000000     0.148000000000     0          
O475     O      0.109230000000     0.500000000000     0.058550000000     0          
C476     C      0.168100000000     0.500000000000     0.115500000000     0          
C477     C      0.197500000000     0.500000000000     0.148000000000     0          
O478     O      0.109230000000     0.000000000000     0.558550000000     0          
C479     C      0.168100000000     0.000000000000     0.615500000000     0          
C480     C      0.197500000000     0.000000000000     0.648000000000     0          
O481     O      0.390770000000     0.500000000000     0.558550000000     0          
C482     C      0.331900000000     0.500000000000     0.615500000000     0          
C483     C      0.302500000000     0.500000000000     0.648000000000     0          
O484     O      0.390770000000     0.000000000000     0.058550000000     0          
C485     C      0.331900000000     0.000000000000     0.115500000000     0          
C486     C      0.302500000000     0.000000000000     0.148000000000     0          
O487     O      0.890770000000     0.500000000000     0.058550000000     0          
C488     C      0.831900000000     0.500000000000     0.115500000000     0          
C489     C      0.802500000000     0.500000000000     0.148000000000     0          
O490     O      0.890770000000     0.000000000000     0.558550000000     0          
C491     C      0.831900000000     0.000000000000     0.615500000000     0          
C492     C      0.802500000000     0.000000000000     0.648000000000     0          
O493     O      0.390770000000     0.500000000000     0.441450000000     0          
C494     C      0.331900000000     0.500000000000     0.384500000000     0          
C495     C      0.302500000000     0.500000000000     0.352000000000     0          
O496     O      0.390770000000     0.000000000000     0.941450000000     0          
C497     C      0.331900000000     0.000000000000     0.884500000000     0          
C498     C      0.302500000000     0.000000000000     0.852000000000     0          
O499     O      0.890770000000     0.500000000000     0.941450000000     0          
C500     C      0.831900000000     0.500000000000     0.884500000000     0          
C501     C      0.802500000000     0.500000000000     0.852000000000     0          
O502     O      0.890770000000     0.000000000000     0.441450000000     0          
C503     C      0.831900000000     0.000000000000     0.384500000000     0          
C504     C      0.802500000000     0.000000000000     0.352000000000     0          
O505     O      0.462860000000     0.462860000000     0.537140000000     0          
O506     O      0.462860000000     0.962860000000     0.037140000000     0          
O507     O      0.962860000000     0.462860000000     0.037140000000     0          
O508     O      0.962860000000     0.962860000000     0.537140000000     0          
O509     O      0.537140000000     0.537140000000     0.537140000000     0          
O510     O      0.537140000000     0.037140000000     0.037140000000     0          
O511     O      0.037140000000     0.537140000000     0.037140000000     0          
O512     O      0.037140000000     0.037140000000     0.537140000000     0          
O513     O      0.537140000000     0.462860000000     0.462860000000     0          
O514     O      0.537140000000     0.962860000000     0.962860000000     0          
O515     O      0.037140000000     0.462860000000     0.962860000000     0          
O516     O      0.037140000000     0.962860000000     0.462860000000     0          
O517     O      0.462860000000     0.537140000000     0.462860000000     0          
O518     O      0.462860000000     0.037140000000     0.962860000000     0          
O519     O      0.962860000000     0.537140000000     0.962860000000     0          
O520     O      0.962860000000     0.037140000000     0.462860000000     0          
O521     O      0.462860000000     0.462860000000     0.462860000000     0          
O522     O      0.462860000000     0.962860000000     0.962860000000     0          
O523     O      0.962860000000     0.462860000000     0.962860000000     0          
O524     O      0.962860000000     0.962860000000     0.462860000000     0          
O525     O      0.537140000000     0.537140000000     0.462860000000     0          
O526     O      0.537140000000     0.037140000000     0.962860000000     0          
O527     O      0.037140000000     0.537140000000     0.962860000000     0          
O528     O      0.037140000000     0.037140000000     0.462860000000     0          
O529     O      0.462860000000     0.537140000000     0.537140000000     0          
O530     O      0.462860000000     0.037140000000     0.037140000000     0          
O531     O      0.962860000000     0.537140000000     0.037140000000     0          
O532     O      0.962860000000     0.037140000000     0.537140000000     0          
O533     O      0.537140000000     0.462860000000     0.537140000000     0          
O534     O      0.537140000000     0.962860000000     0.037140000000     0          
O535     O      0.037140000000     0.462860000000     0.037140000000     0          
O536     O      0.037140000000     0.962860000000     0.537140000000     0          
C537     C      0.595730000000     0.500000000000     0.595730000000     0          
C538     C      0.627570000000     0.500000000000     0.627570000000     0          
C539     C      0.687900000000     0.500000000000     0.687900000000     0          
C540     C      0.720100000000     0.500000000000     0.720100000000     0          
C541     C      0.595730000000     0.000000000000     0.095730000000     0          
C542     C      0.627570000000     0.000000000000     0.127570000000     0          
C543     C      0.687900000000     0.000000000000     0.187900000000     0          
C544     C      0.720100000000     0.000000000000     0.220100000000     0          
C545     C      0.095730000000     0.500000000000     0.095730000000     0          
C546     C      0.127570000000     0.500000000000     0.127570000000     0          
C547     C      0.187900000000     0.500000000000     0.187900000000     0          
C548     C      0.220100000000     0.500000000000     0.220100000000     0          
C549     C      0.095730000000     0.000000000000     0.595730000000     0          
C550     C      0.127570000000     0.000000000000     0.627570000000     0          
C551     C      0.187900000000     0.000000000000     0.687900000000     0          
C552     C      0.220100000000     0.000000000000     0.720100000000     0          
C553     C      0.404270000000     0.500000000000     0.595730000000     0          
C554     C      0.372430000000     0.500000000000     0.627570000000     0          
C555     C      0.312100000000     0.500000000000     0.687900000000     0          
C556     C      0.279900000000     0.500000000000     0.720100000000     0          
C557     C      0.404270000000     0.000000000000     0.095730000000     0          
C558     C      0.372430000000     0.000000000000     0.127570000000     0          
C559     C      0.312100000000     0.000000000000     0.187900000000     0          
C560     C      0.279900000000     0.000000000000     0.220100000000     0          
C561     C      0.904270000000     0.500000000000     0.095730000000     0          
C562     C      0.872430000000     0.500000000000     0.127570000000     0          
C563     C      0.812100000000     0.500000000000     0.187900000000     0          
C564     C      0.779900000000     0.500000000000     0.220100000000     0          
C565     C      0.904270000000     0.000000000000     0.595730000000     0          
C566     C      0.872430000000     0.000000000000     0.627570000000     0          
C567     C      0.812100000000     0.000000000000     0.687900000000     0          
C568     C      0.779900000000     0.000000000000     0.720100000000     0          
C569     C      0.404270000000     0.500000000000     0.404270000000     0          
C570     C      0.372430000000     0.500000000000     0.372430000000     0          
C571     C      0.312100000000     0.500000000000     0.312100000000     0          
C572     C      0.279900000000     0.500000000000     0.279900000000     0          
C573     C      0.404270000000     0.000000000000     0.904270000000     0          
C574     C      0.372430000000     0.000000000000     0.872430000000     0          
C575     C      0.312100000000     0.000000000000     0.812100000000     0          
C576     C      0.279900000000     0.000000000000     0.779900000000     0          
C577     C      0.904270000000     0.500000000000     0.904270000000     0          
C578     C      0.872430000000     0.500000000000     0.872430000000     0          
C579     C      0.812100000000     0.500000000000     0.812100000000     0          
C580     C      0.779900000000     0.500000000000     0.779900000000     0          
C581     C      0.904270000000     0.000000000000     0.404270000000     0          
C582     C      0.872430000000     0.000000000000     0.372430000000     0          
C583     C      0.812100000000     0.000000000000     0.312100000000     0          
C584     C      0.779900000000     0.000000000000     0.279900000000     0          
C585     C      0.595730000000     0.500000000000     0.404270000000     0          
C586     C      0.627570000000     0.500000000000     0.372430000000     0          
C587     C      0.687900000000     0.500000000000     0.312100000000     0          
C588     C      0.720100000000     0.500000000000     0.279900000000     0          
C589     C      0.595730000000     0.000000000000     0.904270000000     0          
C590     C      0.627570000000     0.000000000000     0.872430000000     0          
C591     C      0.687900000000     0.000000000000     0.812100000000     0          
C592     C      0.720100000000     0.000000000000     0.779900000000     0          
C593     C      0.095730000000     0.500000000000     0.904270000000     0          
C594     C      0.127570000000     0.500000000000     0.872430000000     0          
C595     C      0.187900000000     0.500000000000     0.812100000000     0          
C596     C      0.220100000000     0.500000000000     0.779900000000     0          
C597     C      0.095730000000     0.000000000000     0.404270000000     0          
C598     C      0.127570000000     0.000000000000     0.372430000000     0          
C599     C      0.187900000000     0.000000000000     0.312100000000     0          
C600     C      0.220100000000     0.000000000000     0.279900000000     0          
C601     C      0.595730000000     0.595730000000     0.500000000000     0          
C602     C      0.627570000000     0.627570000000     0.500000000000     0          
C603     C      0.687900000000     0.687900000000     0.500000000000     0          
C604     C      0.720100000000     0.720100000000     0.500000000000     0          
C605     C      0.595730000000     0.095730000000     0.000000000000     0          
C606     C      0.627570000000     0.127570000000     0.000000000000     0          
C607     C      0.687900000000     0.187900000000     0.000000000000     0          
C608     C      0.720100000000     0.220100000000     0.000000000000     0          
C609     C      0.095730000000     0.595730000000     0.000000000000     0          
C610     C      0.127570000000     0.627570000000     0.000000000000     0          
C611     C      0.187900000000     0.687900000000     0.000000000000     0          
C612     C      0.220100000000     0.720100000000     0.000000000000     0          
C613     C      0.095730000000     0.095730000000     0.500000000000     0          
C614     C      0.127570000000     0.127570000000     0.500000000000     0          
C615     C      0.187900000000     0.187900000000     0.500000000000     0          
C616     C      0.220100000000     0.220100000000     0.500000000000     0          
C617     C      0.595730000000     0.404270000000     0.500000000000     0          
C618     C      0.627570000000     0.372430000000     0.500000000000     0          
C619     C      0.687900000000     0.312100000000     0.500000000000     0          
C620     C      0.720100000000     0.279900000000     0.500000000000     0          
C621     C      0.595730000000     0.904270000000     0.000000000000     0          
C622     C      0.627570000000     0.872430000000     0.000000000000     0          
C623     C      0.687900000000     0.812100000000     0.000000000000     0          
C624     C      0.720100000000     0.779900000000     0.000000000000     0          
C625     C      0.095730000000     0.404270000000     0.000000000000     0          
C626     C      0.127570000000     0.372430000000     0.000000000000     0          
C627     C      0.187900000000     0.312100000000     0.000000000000     0          
C628     C      0.220100000000     0.279900000000     0.000000000000     0          
C629     C      0.095730000000     0.904270000000     0.500000000000     0          
C630     C      0.127570000000     0.872430000000     0.500000000000     0          
C631     C      0.187900000000     0.812100000000     0.500000000000     0          
C632     C      0.220100000000     0.779900000000     0.500000000000     0          
C633     C      0.404270000000     0.404270000000     0.500000000000     0          
C634     C      0.372430000000     0.372430000000     0.500000000000     0          
C635     C      0.312100000000     0.312100000000     0.500000000000     0          
C636     C      0.279900000000     0.279900000000     0.500000000000     0          
C637     C      0.404270000000     0.904270000000     0.000000000000     0          
C638     C      0.372430000000     0.872430000000     0.000000000000     0          
C639     C      0.312100000000     0.812100000000     0.000000000000     0          
C640     C      0.279900000000     0.779900000000     0.000000000000     0          
C641     C      0.904270000000     0.404270000000     0.000000000000     0          
C642     C      0.872430000000     0.372430000000     0.000000000000     0          
C643     C      0.812100000000     0.312100000000     0.000000000000     0          
C644     C      0.779900000000     0.279900000000     0.000000000000     0          
C645     C      0.904270000000     0.904270000000     0.500000000000     0          
C646     C      0.872430000000     0.872430000000     0.500000000000     0          
C647     C      0.812100000000     0.812100000000     0.500000000000     0          
C648     C      0.779900000000     0.779900000000     0.500000000000     0          
C649     C      0.404270000000     0.595730000000     0.500000000000     0          
C650     C      0.372430000000     0.627570000000     0.500000000000     0          
C651     C      0.312100000000     0.687900000000     0.500000000000     0          
C652     C      0.279900000000     0.720100000000     0.500000000000     0          
C653     C      0.404270000000     0.095730000000     0.000000000000     0          
C654     C      0.372430000000     0.127570000000     0.000000000000     0          
C655     C      0.312100000000     0.187900000000     0.000000000000     0          
C656     C      0.279900000000     0.220100000000     0.000000000000     0          
C657     C      0.904270000000     0.595730000000     0.000000000000     0          
C658     C      0.872430000000     0.627570000000     0.000000000000     0          
C659     C      0.812100000000     0.687900000000     0.000000000000     0          
C660     C      0.779900000000     0.720100000000     0.000000000000     0          
C661     C      0.904270000000     0.095730000000     0.500000000000     0          
C662     C      0.872430000000     0.127570000000     0.500000000000     0          
C663     C      0.812100000000     0.187900000000     0.500000000000     0          
C664     C      0.779900000000     0.220100000000     0.500000000000     0          
C665     C      0.500000000000     0.595730000000     0.595730000000     0          
C666     C      0.500000000000     0.627570000000     0.627570000000     0          
C667     C      0.500000000000     0.687900000000     0.687900000000     0          
C668     C      0.500000000000     0.720100000000     0.720100000000     0          
C669     C      0.500000000000     0.095730000000     0.095730000000     0          
C670     C      0.500000000000     0.127570000000     0.127570000000     0          
C671     C      0.500000000000     0.187900000000     0.187900000000     0          
C672     C      0.500000000000     0.220100000000     0.220100000000     0          
C673     C      0.000000000000     0.595730000000     0.095730000000     0          
C674     C      0.000000000000     0.627570000000     0.127570000000     0          
C675     C      0.000000000000     0.687900000000     0.187900000000     0          
C676     C      0.000000000000     0.720100000000     0.220100000000     0          
C677     C      0.000000000000     0.095730000000     0.595730000000     0          
C678     C      0.000000000000     0.127570000000     0.627570000000     0          
C679     C      0.000000000000     0.187900000000     0.687900000000     0          
C680     C      0.000000000000     0.220100000000     0.720100000000     0          
C681     C      0.500000000000     0.595730000000     0.404270000000     0          
C682     C      0.500000000000     0.627570000000     0.372430000000     0          
C683     C      0.500000000000     0.687900000000     0.312100000000     0          
C684     C      0.500000000000     0.720100000000     0.279900000000     0          
C685     C      0.500000000000     0.095730000000     0.904270000000     0          
C686     C      0.500000000000     0.127570000000     0.872430000000     0          
C687     C      0.500000000000     0.187900000000     0.812100000000     0          
C688     C      0.500000000000     0.220100000000     0.779900000000     0          
C689     C      0.000000000000     0.595730000000     0.904270000000     0          
C690     C      0.000000000000     0.627570000000     0.872430000000     0          
C691     C      0.000000000000     0.687900000000     0.812100000000     0          
C692     C      0.000000000000     0.720100000000     0.779900000000     0          
C693     C      0.000000000000     0.095730000000     0.404270000000     0          
C694     C      0.000000000000     0.127570000000     0.372430000000     0          
C695     C      0.000000000000     0.187900000000     0.312100000000     0          
C696     C      0.000000000000     0.220100000000     0.279900000000     0          
C697     C      0.500000000000     0.404270000000     0.404270000000     0          
C698     C      0.500000000000     0.372430000000     0.372430000000     0          
C699     C      0.500000000000     0.312100000000     0.312100000000     0          
C700     C      0.500000000000     0.279900000000     0.279900000000     0          
C701     C      0.500000000000     0.904270000000     0.904270000000     0          
C702     C      0.500000000000     0.872430000000     0.872430000000     0          
C703     C      0.500000000000     0.812100000000     0.812100000000     0          
C704     C      0.500000000000     0.779900000000     0.779900000000     0          
C705     C      0.000000000000     0.404270000000     0.904270000000     0          
C706     C      0.000000000000     0.372430000000     0.872430000000     0          
C707     C      0.000000000000     0.312100000000     0.812100000000     0          
C708     C      0.000000000000     0.279900000000     0.779900000000     0          
C709     C      0.000000000000     0.904270000000     0.404270000000     0          
C710     C      0.000000000000     0.872430000000     0.372430000000     0          
C711     C      0.000000000000     0.812100000000     0.312100000000     0          
C712     C      0.000000000000     0.779900000000     0.279900000000     0          
C713     C      0.500000000000     0.404270000000     0.595730000000     0          
C714     C      0.500000000000     0.372430000000     0.627570000000     0          
C715     C      0.500000000000     0.312100000000     0.687900000000     0          
C716     C      0.500000000000     0.279900000000     0.720100000000     0          
C717     C      0.500000000000     0.904270000000     0.095730000000     0          
C718     C      0.500000000000     0.872430000000     0.127570000000     0          
C719     C      0.500000000000     0.812100000000     0.187900000000     0          
C720     C      0.500000000000     0.779900000000     0.220100000000     0          
C721     C      0.000000000000     0.404270000000     0.095730000000     0          
C722     C      0.000000000000     0.372430000000     0.127570000000     0          
C723     C      0.000000000000     0.312100000000     0.187900000000     0          
C724     C      0.000000000000     0.279900000000     0.220100000000     0          
C725     C      0.000000000000     0.904270000000     0.595730000000     0          
C726     C      0.000000000000     0.872430000000     0.627570000000     0          
C727     C      0.000000000000     0.812100000000     0.687900000000     0          
C728     C      0.000000000000     0.779900000000     0.720100000000     0          
H729     H      0.678800000000     0.582320000000     0.500000000000     0          
H730     H      0.731580000000     0.640670000000     0.500000000000     0          
H731     H      0.821200000000     0.582320000000     0.000000000000     0          
H732     H      0.768420000000     0.640670000000     0.000000000000     0          
H733     H      0.582320000000     0.678800000000     0.500000000000     0          
H734     H      0.640670000000     0.731580000000     0.500000000000     0          
H735     H      0.917680000000     0.678800000000     0.000000000000     0          
H736     H      0.859330000000     0.731580000000     0.000000000000     0          
H737     H      0.731580000000     0.859330000000     0.000000000000     0          
H738     H      0.821200000000     0.917680000000     0.500000000000     0          
H739     H      0.768420000000     0.859330000000     0.500000000000     0          
H740     H      0.917680000000     0.821200000000     0.500000000000     0          
H741     H      0.859330000000     0.768420000000     0.500000000000     0          
H742     H      0.582320000000     0.821200000000     0.000000000000     0          
H743     H      0.640670000000     0.768420000000     0.000000000000     0          
H744     H      0.678800000000     0.917680000000     0.000000000000     0          
H745     H      0.321200000000     0.582320000000     0.500000000000     0          
H746     H      0.268420000000     0.640670000000     0.500000000000     0          
H747     H      0.417680000000     0.678800000000     0.500000000000     0          
H748     H      0.359330000000     0.731580000000     0.500000000000     0          
H749     H      0.321200000000     0.917680000000     0.000000000000     0          
H750     H      0.359330000000     0.768420000000     0.000000000000     0          
H751     H      0.268420000000     0.859330000000     0.000000000000     0          
H752     H      0.417680000000     0.821200000000     0.000000000000     0          
H753     H      0.178800000000     0.582320000000     0.000000000000     0          
H754     H      0.231580000000     0.640670000000     0.000000000000     0          
H755     H      0.082320000000     0.678800000000     0.000000000000     0          
H756     H      0.140670000000     0.731580000000     0.000000000000     0          
H757     H      0.178800000000     0.917680000000     0.500000000000     0          
H758     H      0.231580000000     0.859330000000     0.500000000000     0          
H759     H      0.082320000000     0.821200000000     0.500000000000     0          
H760     H      0.140670000000     0.768420000000     0.500000000000     0          
H761     H      0.731580000000     0.140670000000     0.000000000000     0          
H762     H      0.678800000000     0.417680000000     0.500000000000     0          
H763     H      0.731580000000     0.359330000000     0.500000000000     0          
H764     H      0.821200000000     0.417680000000     0.000000000000     0          
H765     H      0.768420000000     0.359330000000     0.000000000000     0          
H766     H      0.821200000000     0.082320000000     0.500000000000     0          
H767     H      0.768420000000     0.140670000000     0.500000000000     0          
H768     H      0.582320000000     0.178800000000     0.000000000000     0          
H769     H      0.917680000000     0.178800000000     0.500000000000     0          
H770     H      0.917680000000     0.321200000000     0.000000000000     0          
H771     H      0.859330000000     0.268420000000     0.000000000000     0          
H772     H      0.582320000000     0.321200000000     0.500000000000     0          
H773     H      0.640670000000     0.268420000000     0.500000000000     0          
H774     H      0.678800000000     0.082320000000     0.000000000000     0          
H775     H      0.640670000000     0.231580000000     0.000000000000     0          
H776     H      0.859330000000     0.231580000000     0.500000000000     0          
H777     H      0.178800000000     0.417680000000     0.000000000000     0          
H778     H      0.231580000000     0.359330000000     0.000000000000     0          
H779     H      0.321200000000     0.417680000000     0.500000000000     0          
H780     H      0.268420000000     0.359330000000     0.500000000000     0          
H781     H      0.321200000000     0.082320000000     0.000000000000     0          
H782     H      0.268420000000     0.140670000000     0.000000000000     0          
H783     H      0.417680000000     0.178800000000     0.000000000000     0          
H784     H      0.359330000000     0.231580000000     0.000000000000     0          
H785     H      0.417680000000     0.321200000000     0.500000000000     0          
H786     H      0.359330000000     0.268420000000     0.500000000000     0          
H787     H      0.082320000000     0.321200000000     0.000000000000     0          
H788     H      0.140670000000     0.268420000000     0.000000000000     0          
H789     H      0.178800000000     0.082320000000     0.500000000000     0          
H790     H      0.231580000000     0.140670000000     0.500000000000     0          
H791     H      0.140670000000     0.231580000000     0.500000000000     0          
H792     H      0.082320000000     0.178800000000     0.500000000000     0          
H793     H      0.582320000000     0.500000000000     0.678800000000     0          
H794     H      0.640670000000     0.500000000000     0.731580000000     0          
H795     H      0.917680000000     0.500000000000     0.821200000000     0          
H796     H      0.859330000000     0.500000000000     0.768420000000     0          
H797     H      0.678800000000     0.500000000000     0.582320000000     0          
H798     H      0.731580000000     0.500000000000     0.640670000000     0          
H799     H      0.821200000000     0.500000000000     0.917680000000     0          
H800     H      0.768420000000     0.500000000000     0.859330000000     0          
H801     H      0.082320000000     0.500000000000     0.178800000000     0          
H802     H      0.140670000000     0.500000000000     0.231580000000     0          
H803     H      0.417680000000     0.500000000000     0.321200000000     0          
H804     H      0.359330000000     0.500000000000     0.268420000000     0          
H805     H      0.178800000000     0.500000000000     0.082320000000     0          
H806     H      0.231580000000     0.500000000000     0.140670000000     0          
H807     H      0.321200000000     0.500000000000     0.417680000000     0          
H808     H      0.268420000000     0.500000000000     0.359330000000     0          
H809     H      0.917680000000     0.500000000000     0.178800000000     0          
H810     H      0.859330000000     0.500000000000     0.231580000000     0          
H811     H      0.582320000000     0.500000000000     0.321200000000     0          
H812     H      0.640670000000     0.500000000000     0.268420000000     0          
H813     H      0.678800000000     0.500000000000     0.417680000000     0          
H814     H      0.731580000000     0.500000000000     0.359330000000     0          
H815     H      0.821200000000     0.500000000000     0.082320000000     0          
H816     H      0.768420000000     0.500000000000     0.140670000000     0          
H817     H      0.417680000000     0.500000000000     0.678800000000     0          
H818     H      0.359330000000     0.500000000000     0.731580000000     0          
H819     H      0.082320000000     0.500000000000     0.821200000000     0          
H820     H      0.140670000000     0.500000000000     0.768420000000     0          
H821     H      0.178800000000     0.500000000000     0.917680000000     0          
H822     H      0.231580000000     0.500000000000     0.859330000000     0          
H823     H      0.321200000000     0.500000000000     0.582320000000     0          
H824     H      0.268420000000     0.500000000000     0.640670000000     0          
H825     H      0.500000000000     0.678800000000     0.417680000000     0          
H826     H      0.500000000000     0.731580000000     0.359330000000     0          
H827     H      0.500000000000     0.178800000000     0.917680000000     0          
H828     H      0.500000000000     0.231580000000     0.859330000000     0          
H829     H      0.500000000000     0.321200000000     0.582320000000     0          
H830     H      0.500000000000     0.268420000000     0.640670000000     0          
H831     H      0.500000000000     0.821200000000     0.082320000000     0          
H832     H      0.500000000000     0.768420000000     0.140670000000     0          
H833     H      0.500000000000     0.582320000000     0.321200000000     0          
H834     H      0.500000000000     0.640670000000     0.268420000000     0          
H835     H      0.500000000000     0.082320000000     0.821200000000     0          
H836     H      0.500000000000     0.140670000000     0.768420000000     0          
H837     H      0.500000000000     0.417680000000     0.678800000000     0          
H838     H      0.500000000000     0.359330000000     0.731580000000     0          
H839     H      0.500000000000     0.917680000000     0.178800000000     0          
H840     H      0.500000000000     0.859330000000     0.231580000000     0          
H841     H      0.500000000000     0.678800000000     0.582320000000     0          
H842     H      0.500000000000     0.731580000000     0.640670000000     0          
H843     H      0.500000000000     0.178800000000     0.082320000000     0          
H844     H      0.500000000000     0.231580000000     0.140670000000     0          
H845     H      0.500000000000     0.321200000000     0.417680000000     0          
H846     H      0.500000000000     0.268420000000     0.359330000000     0          
H847     H      0.500000000000     0.821200000000     0.917680000000     0          
H848     H      0.500000000000     0.768420000000     0.859330000000     0          
H849     H      0.500000000000     0.417680000000     0.321200000000     0          
H850     H      0.500000000000     0.359330000000     0.268420000000     0          
H851     H      0.500000000000     0.917680000000     0.821200000000     0          
H852     H      0.500000000000     0.859330000000     0.768420000000     0          
H853     H      0.500000000000     0.582320000000     0.678800000000     0          
H854     H      0.500000000000     0.640670000000     0.731580000000     0          
H855     H      0.500000000000     0.082320000000     0.178800000000     0          
H856     H      0.500000000000     0.140670000000     0.231580000000     0          
H857     H      0.582320000000     0.000000000000     0.178800000000     0          
H858     H      0.640670000000     0.000000000000     0.231580000000     0          
H859     H      0.082320000000     0.000000000000     0.678800000000     0          
H860     H      0.140670000000     0.000000000000     0.731580000000     0          
H861     H      0.417680000000     0.000000000000     0.821200000000     0          
H862     H      0.359330000000     0.000000000000     0.768420000000     0          
H863     H      0.917680000000     0.000000000000     0.321200000000     0          
H864     H      0.859330000000     0.000000000000     0.268420000000     0          
H865     H      0.678800000000     0.000000000000     0.082320000000     0          
H866     H      0.731580000000     0.000000000000     0.140670000000     0          
H867     H      0.178800000000     0.000000000000     0.582320000000     0          
H868     H      0.231580000000     0.000000000000     0.640670000000     0          
H869     H      0.321200000000     0.000000000000     0.917680000000     0          
H870     H      0.268420000000     0.000000000000     0.859330000000     0          
H871     H      0.821200000000     0.000000000000     0.417680000000     0          
H872     H      0.768420000000     0.000000000000     0.359330000000     0          
H873     H      0.417680000000     0.000000000000     0.178800000000     0          
H874     H      0.359330000000     0.000000000000     0.231580000000     0          
H875     H      0.917680000000     0.000000000000     0.678800000000     0          
H876     H      0.859330000000     0.000000000000     0.731580000000     0          
H877     H      0.582320000000     0.000000000000     0.821200000000     0          
H878     H      0.640670000000     0.000000000000     0.768420000000     0          
H879     H      0.082320000000     0.000000000000     0.321200000000     0          
H880     H      0.140670000000     0.000000000000     0.268420000000     0          
H881     H      0.678800000000     0.000000000000     0.917680000000     0          
H882     H      0.731580000000     0.000000000000     0.859330000000     0          
H883     H      0.178800000000     0.000000000000     0.417680000000     0          
H884     H      0.231580000000     0.000000000000     0.359330000000     0          
H885     H      0.321200000000     0.000000000000     0.082320000000     0          
H886     H      0.268420000000     0.000000000000     0.140670000000     0          
H887     H      0.821200000000     0.000000000000     0.582320000000     0          
H888     H      0.768420000000     0.000000000000     0.640670000000     0          
H889     H      0.000000000000     0.678800000000     0.082320000000     0          
H890     H      0.000000000000     0.731580000000     0.140670000000     0          
H891     H      0.000000000000     0.678800000000     0.917680000000     0          
H892     H      0.000000000000     0.731580000000     0.859330000000     0          
H893     H      0.000000000000     0.821200000000     0.417680000000     0          
H894     H      0.000000000000     0.768420000000     0.359330000000     0          
H895     H      0.000000000000     0.821200000000     0.582320000000     0          
H896     H      0.000000000000     0.768420000000     0.640670000000     0          
H897     H      0.000000000000     0.582320000000     0.821200000000     0          
H898     H      0.000000000000     0.640670000000     0.768420000000     0          
H899     H      0.000000000000     0.917680000000     0.321200000000     0          
H900     H      0.000000000000     0.859330000000     0.268420000000     0          
H901     H      0.000000000000     0.917680000000     0.678800000000     0          
H902     H      0.000000000000     0.859330000000     0.731580000000     0          
H903     H      0.000000000000     0.582320000000     0.178800000000     0          
H904     H      0.000000000000     0.640670000000     0.231580000000     0          
H905     H      0.000000000000     0.178800000000     0.582320000000     0          
H906     H      0.000000000000     0.231580000000     0.640670000000     0          
H907     H      0.000000000000     0.178800000000     0.417680000000     0          
H908     H      0.000000000000     0.231580000000     0.359330000000     0          
H909     H      0.000000000000     0.321200000000     0.917680000000     0          
H910     H      0.000000000000     0.268420000000     0.859330000000     0          
H911     H      0.000000000000     0.321200000000     0.082320000000     0          
H912     H      0.000000000000     0.268420000000     0.140670000000     0          
H913     H      0.000000000000     0.082320000000     0.321200000000     0          
H914     H      0.000000000000     0.140670000000     0.268420000000     0          
H915     H      0.000000000000     0.417680000000     0.821200000000     0          
H916     H      0.000000000000     0.359330000000     0.768420000000     0          
H917     H      0.000000000000     0.417680000000     0.178800000000     0          
H918     H      0.000000000000     0.359330000000     0.231580000000     0          
H919     H      0.000000000000     0.082320000000     0.678800000000     0          
H920     H      0.000000000000     0.140670000000     0.731580000000     0          
H921     H      0.442450000000     0.696460000000     0.745990000000     0          
H922     H      0.613510000000     0.789880000000     0.673710000000     0          
H923     H      0.626440000000     0.756390000000     0.717900000000     0          
H924     H      0.595090000000     0.803230000000     0.725900000000     0          
H925     H      0.557550000000     0.803540000000     0.754010000000     0          
H926     H      0.403080000000     0.690060000000     0.806220000000     0          
H927     H      0.390150000000     0.723550000000     0.762040000000     0          
H928     H      0.371730000000     0.736900000000     0.814230000000     0          
H929     H      0.442450000000     0.196460000000     0.245990000000     0          
H930     H      0.613510000000     0.289880000000     0.173710000000     0          
H931     H      0.626440000000     0.256390000000     0.217900000000     0          
H932     H      0.595090000000     0.303230000000     0.225900000000     0          
H933     H      0.557550000000     0.303540000000     0.254010000000     0          
H934     H      0.403080000000     0.190060000000     0.306220000000     0          
H935     H      0.390150000000     0.223550000000     0.262040000000     0          
H936     H      0.371730000000     0.236900000000     0.314230000000     0          
H937     H      0.557550000000     0.303540000000     0.745990000000     0          
H938     H      0.629850000000     0.803620000000     0.257460000000     0          
H939     H      0.603410000000     0.762550000000     0.286710000000     0          
H940     H      0.601770000000     0.816320000000     0.305330000000     0          
H941     H      0.406490000000     0.191130000000     0.715290000000     0          
H942     H      0.380060000000     0.220380000000     0.674220000000     0          
H943     H      0.378420000000     0.239000000000     0.728000000000     0          
H944     H      0.442450000000     0.754010000000     0.196460000000     0          
H945     H      0.380060000000     0.674220000000     0.220380000000     0          
H946     H      0.406490000000     0.715290000000     0.191130000000     0          
H947     H      0.378420000000     0.728000000000     0.239000000000     0          
H948     H      0.442450000000     0.196460000000     0.754010000000     0          
H949     H      0.603410000000     0.286710000000     0.762550000000     0          
H950     H      0.629850000000     0.257460000000     0.803620000000     0          
H951     H      0.601770000000     0.305330000000     0.816320000000     0          
H952     H      0.557550000000     0.745990000000     0.303540000000     0          
H953     H      0.787010000000     0.384610000000     0.673410000000     0          
H954     H      0.757340000000     0.374750000000     0.720990000000     0          
H955     H      0.805140000000     0.405600000000     0.723120000000     0          
H956     H      0.287010000000     0.384610000000     0.173410000000     0          
H957     H      0.257340000000     0.374750000000     0.220990000000     0          
H958     H      0.305140000000     0.405600000000     0.223120000000     0          
H959     H      0.696460000000     0.557550000000     0.745990000000     0          
H960     H      0.196460000000     0.557550000000     0.245990000000     0          
H961     H      0.191010000000     0.598110000000     0.309310000000     0          
H962     H      0.220680000000     0.607960000000     0.261730000000     0          
H963     H      0.238820000000     0.628960000000     0.311440000000     0          
H964     H      0.691010000000     0.598110000000     0.809310000000     0          
H965     H      0.720680000000     0.607960000000     0.761730000000     0          
H966     H      0.738820000000     0.628960000000     0.811440000000     0          
H967     H      0.303540000000     0.442450000000     0.254010000000     0          
H968     H      0.803540000000     0.442450000000     0.754010000000     0          
H969     H      0.754010000000     0.557550000000     0.196460000000     0          
H970     H      0.279320000000     0.607960000000     0.761730000000     0          
H971     H      0.308990000000     0.598110000000     0.809310000000     0          
H972     H      0.261180000000     0.628960000000     0.811440000000     0          
H973     H      0.196460000000     0.442450000000     0.754010000000     0          
H974     H      0.823690000000     0.391660000000     0.297210000000     0          
H975     H      0.791060000000     0.371170000000     0.255300000000     0          
H976     H      0.767740000000     0.402140000000     0.296990000000     0          
H977     H      0.745990000000     0.442450000000     0.303540000000     0          
H978     H      0.242660000000     0.374750000000     0.720990000000     0          
H979     H      0.212990000000     0.384610000000     0.673410000000     0          
H980     H      0.194860000000     0.405600000000     0.723120000000     0          
H981     H      0.303540000000     0.557550000000     0.745990000000     0          
H982     H      0.702730000000     0.594520000000     0.188970000000     0          
H983     H      0.735370000000     0.615010000000     0.230880000000     0          
H984     H      0.679410000000     0.625500000000     0.230660000000     0          
H985     H      0.735370000000     0.230880000000     0.615010000000     0          
H986     H      0.702730000000     0.188970000000     0.594520000000     0          
H987     H      0.679410000000     0.230660000000     0.625500000000     0          
H988     H      0.745990000000     0.303540000000     0.442450000000     0          
H989     H      0.791060000000     0.255300000000     0.371170000000     0          
H990     H      0.823690000000     0.297210000000     0.391660000000     0          
H991     H      0.767740000000     0.296990000000     0.402140000000     0          
H992     H      0.754010000000     0.196460000000     0.557550000000     0          
H993     H      0.235370000000     0.730880000000     0.615010000000     0          
H994     H      0.202730000000     0.688970000000     0.594520000000     0          
H995     H      0.179410000000     0.730660000000     0.625500000000     0          
H996     H      0.245990000000     0.803540000000     0.442450000000     0          
H997     H      0.291060000000     0.755300000000     0.371170000000     0          
H998     H      0.323690000000     0.797210000000     0.391660000000     0          
H999     H      0.267740000000     0.796990000000     0.402140000000     0          
H1000    H      0.254010000000     0.696460000000     0.557550000000     0          
H1001    H      0.176310000000     0.297210000000     0.391660000000     0          
H1002    H      0.208940000000     0.255300000000     0.371170000000     0          
H1003    H      0.232260000000     0.296990000000     0.402140000000     0          
H1004    H      0.245990000000     0.196460000000     0.557550000000     0          
H1005    H      0.297270000000     0.188970000000     0.594520000000     0          
H1006    H      0.264630000000     0.230880000000     0.615010000000     0          
H1007    H      0.320590000000     0.230660000000     0.625500000000     0          
H1008    H      0.254010000000     0.303540000000     0.442450000000     0          
H1009    H      0.809390000000     0.691040000000     0.401850000000     0          
H1010    H      0.811370000000     0.738860000000     0.371020000000     0          
H1011    H      0.761730000000     0.720600000000     0.392090000000     0          
H1012    H      0.723040000000     0.805190000000     0.594380000000     0          
H1013    H      0.721070000000     0.757370000000     0.625210000000     0          
H1014    H      0.673400000000     0.786930000000     0.615440000000     0          
H1015    H      0.754010000000     0.803540000000     0.557550000000     0          
H1016    H      0.745990000000     0.696460000000     0.442450000000     0          
H1017    H      0.890150000000     0.262040000000     0.723550000000     0          
H1018    H      0.903080000000     0.306220000000     0.690060000000     0          
H1019    H      0.871730000000     0.314230000000     0.736900000000     0          
H1020    H      0.890150000000     0.762040000000     0.223550000000     0          
H1021    H      0.903080000000     0.806220000000     0.190060000000     0          
H1022    H      0.871730000000     0.814230000000     0.236900000000     0          
H1023    H      0.942450000000     0.745990000000     0.196460000000     0          
H1024    H      0.942450000000     0.245990000000     0.696460000000     0          
H1025    H      0.057550000000     0.254010000000     0.803540000000     0          
H1026    H      0.057550000000     0.754010000000     0.303540000000     0          
H1027    H      0.126440000000     0.717900000000     0.256390000000     0          
H1028    H      0.113510000000     0.673710000000     0.289880000000     0          
H1029    H      0.095090000000     0.725900000000     0.303230000000     0          
H1030    H      0.126440000000     0.217900000000     0.756390000000     0          
H1031    H      0.113510000000     0.173710000000     0.789880000000     0          
H1032    H      0.095090000000     0.225900000000     0.803230000000     0          
H1033    H      0.942450000000     0.745990000000     0.803540000000     0          
H1034    H      0.942450000000     0.245990000000     0.303540000000     0          
H1035    H      0.896590000000     0.262550000000     0.286710000000     0          
H1036    H      0.870150000000     0.303620000000     0.257460000000     0          
H1037    H      0.898230000000     0.316320000000     0.305330000000     0          
H1038    H      0.896590000000     0.762550000000     0.786710000000     0          
H1039    H      0.870150000000     0.803620000000     0.757460000000     0          
H1040    H      0.898230000000     0.816320000000     0.805330000000     0          
H1041    H      0.093510000000     0.715290000000     0.691130000000     0          
H1042    H      0.119940000000     0.674220000000     0.720380000000     0          
H1043    H      0.121580000000     0.728000000000     0.739000000000     0          
H1044    H      0.093510000000     0.215290000000     0.191130000000     0          
H1045    H      0.119940000000     0.174220000000     0.220380000000     0          
H1046    H      0.121580000000     0.228000000000     0.239000000000     0          
H1047    H      0.057550000000     0.254010000000     0.196460000000     0          
H1048    H      0.057550000000     0.754010000000     0.696460000000     0          
H1049    H      0.778260000000     0.891340000000     0.761800000000     0          
H1050    H      0.761860000000     0.871270000000     0.812490000000     0          
H1051    H      0.809370000000     0.902350000000     0.808190000000     0          
H1052    H      0.708940000000     0.871170000000     0.255300000000     0          
H1053    H      0.676310000000     0.891660000000     0.297210000000     0          
H1054    H      0.732260000000     0.902140000000     0.296990000000     0          
H1055    H      0.695540000000     0.094630000000     0.724170000000     0          
H1056    H      0.711930000000     0.114700000000     0.673480000000     0          
H1057    H      0.743040000000     0.125710000000     0.719870000000     0          
H1058    H      0.764630000000     0.115010000000     0.230880000000     0          
H1059    H      0.797270000000     0.094520000000     0.188970000000     0          
H1060    H      0.820590000000     0.125500000000     0.230660000000     0          
H1061    H      0.754010000000     0.942450000000     0.303540000000     0          
H1062    H      0.803540000000     0.942450000000     0.745990000000     0          
H1063    H      0.745990000000     0.057550000000     0.196460000000     0          
H1064    H      0.696460000000     0.057550000000     0.754010000000     0          
H1065    H      0.238140000000     0.871270000000     0.812490000000     0          
H1066    H      0.221740000000     0.891340000000     0.761800000000     0          
H1067    H      0.190630000000     0.902350000000     0.808190000000     0          
H1068    H      0.196460000000     0.942450000000     0.745990000000     0          
H1069    H      0.303540000000     0.057550000000     0.754010000000     0          
H1070    H      0.288070000000     0.114700000000     0.673480000000     0          
H1071    H      0.304460000000     0.094630000000     0.724170000000     0          
H1072    H      0.256960000000     0.125710000000     0.719870000000     0          
H1073    H      0.254010000000     0.942450000000     0.196460000000     0          
H1074    H      0.245990000000     0.057550000000     0.303540000000     0          
H1075    H      0.276960000000     0.094380000000     0.305190000000     0          
H1076    H      0.278930000000     0.125210000000     0.257370000000     0          
H1077    H      0.326600000000     0.115440000000     0.286930000000     0          
H1078    H      0.190610000000     0.901850000000     0.191040000000     0          
H1079    H      0.188630000000     0.871020000000     0.238860000000     0          
H1080    H      0.238270000000     0.892090000000     0.220600000000     0          
H1081    H      0.761860000000     0.812490000000     0.871270000000     0          
H1082    H      0.778260000000     0.761800000000     0.891340000000     0          
H1083    H      0.809370000000     0.808190000000     0.902350000000     0          
H1084    H      0.245990000000     0.303540000000     0.942450000000     0          
H1085    H      0.291060000000     0.255300000000     0.871170000000     0          
H1086    H      0.323690000000     0.297210000000     0.891660000000     0          
H1087    H      0.267740000000     0.296990000000     0.902140000000     0          
H1088    H      0.803540000000     0.745990000000     0.942450000000     0          
H1089    H      0.696460000000     0.754010000000     0.057550000000     0          
H1090    H      0.235370000000     0.230880000000     0.115010000000     0          
H1091    H      0.202730000000     0.188970000000     0.094520000000     0          
H1092    H      0.179410000000     0.230660000000     0.125500000000     0          
H1093    H      0.254010000000     0.196460000000     0.057550000000     0          
H1094    H      0.711930000000     0.673480000000     0.114700000000     0          
H1095    H      0.695540000000     0.724170000000     0.094630000000     0          
H1096    H      0.743040000000     0.719870000000     0.125710000000     0          
H1097    H      0.176310000000     0.797210000000     0.891660000000     0          
H1098    H      0.208940000000     0.755300000000     0.871170000000     0          
H1099    H      0.232260000000     0.796990000000     0.902140000000     0          
H1100    H      0.757340000000     0.220990000000     0.874750000000     0          
H1101    H      0.787010000000     0.173410000000     0.884610000000     0          
H1102    H      0.805140000000     0.223120000000     0.905600000000     0          
H1103    H      0.720680000000     0.261730000000     0.107960000000     0          
H1104    H      0.691010000000     0.309310000000     0.098110000000     0          
H1105    H      0.738820000000     0.311440000000     0.128960000000     0          
H1106    H      0.297270000000     0.688970000000     0.094520000000     0          
H1107    H      0.264630000000     0.730880000000     0.115010000000     0          
H1108    H      0.320590000000     0.730660000000     0.125500000000     0          
H1109    H      0.803540000000     0.254010000000     0.942450000000     0          
H1110    H      0.254010000000     0.803540000000     0.942450000000     0          
H1111    H      0.245990000000     0.696460000000     0.057550000000     0          
H1112    H      0.696460000000     0.245990000000     0.057550000000     0          


