data_YEXQOK

_audit_creation_method RASPA-1.0
_audit_creation_date 2020-11-2
_audit_author_name 'Rocio Bueno-Perez'

_cell_length_a    38.926
_cell_length_b    38.926
_cell_length_c    16.8351
_cell_angle_alpha 90
_cell_angle_beta  90
_cell_angle_gamma 120
_cell_volume      22091.5

_symmetry_cell_setting          triclinic
_symmetry_space_group_name_Hall 'P 1'
_symmetry_space_group_name_H-M  'P 1'
_symmetry_Int_Tables_number     1

_symmetry_equiv_pos_as_xyz 'x,y,z'

loop_
_atom_site_label
_atom_site_type_symbol
_atom_site_fract_x
_atom_site_fract_y
_atom_site_fract_z
_atom_site_charge
O1       O      0.105100000000     0.517600000000     0.580800000000     0          
O2       O      0.058400000000     0.465700000000     0.648900000000     0          
C3       C      0.093900000000     0.493400000000     0.629300000000     0          
C4       C      0.114400000000     0.461300000000     0.741400000000     0          
C5       C      0.126000000000     0.492400000000     0.683800000000     0          
C6       C      0.164400000000     0.522300000000     0.676100000000     0          
C7       C      0.194200000000     0.522300000000     0.723700000000     0          
C8       C      0.144700000000     0.463300000000     0.792600000000     0          
C9       C      0.184200000000     0.493300000000     0.782300000000     0          
C10      C      0.215000000000     0.493400000000     0.915800000000     0          
C11      C      0.216200000000     0.493700000000     0.833100000000     0          
C12      C      0.184800000000     0.494800000000     0.961700000000     0          
O13      O      0.044900000000     0.499700000000     0.396400000000     0          
H14      H      0.559550000000     0.696260000000     0.841880000000     0          
H15      H      0.563590000000     0.645780000000     0.744910000000     0          
H16      H      0.452880000000     0.625120000000     0.631330000000     0          
H17      H      0.454030000000     0.680600000000     0.714540000000     0          
O18      O      0.482400000000     0.587500000000     0.580800000000     0          
O19      O      0.534300000000     0.592700000000     0.648900000000     0          
C20      C      0.506600000000     0.600500000000     0.629300000000     0          
C21      C      0.538700000000     0.653100000000     0.741400000000     0          
C22      C      0.507600000000     0.633600000000     0.683800000000     0          
C23      C      0.477700000000     0.642100000000     0.676100000000     0          
C24      C      0.477700000000     0.671900000000     0.723700000000     0          
C25      C      0.536700000000     0.681400000000     0.792600000000     0          
C26      C      0.506700000000     0.690900000000     0.782300000000     0          
C27      C      0.506600000000     0.721600000000     0.915800000000     0          
C28      C      0.506300000000     0.722500000000     0.833100000000     0          
C29      C      0.505200000000     0.690000000000     0.961700000000     0          
O30      O      0.500300000000     0.545200000000     0.396400000000     0          
H31      H      0.303740000000     0.863290000000     0.841880000000     0          
H32      H      0.354220000000     0.917810000000     0.744910000000     0          
H33      H      0.374880000000     0.827760000000     0.631330000000     0          
H34      H      0.319400000000     0.773430000000     0.714540000000     0          
O35      O      0.412500000000     0.894900000000     0.580800000000     0          
O36      O      0.407300000000     0.941600000000     0.648900000000     0          
C37      C      0.399500000000     0.906100000000     0.629300000000     0          
C38      C      0.346900000000     0.885600000000     0.741400000000     0          
C39      C      0.366400000000     0.874000000000     0.683800000000     0          
C40      C      0.357900000000     0.835600000000     0.676100000000     0          
C41      C      0.328100000000     0.805800000000     0.723700000000     0          
C42      C      0.318600000000     0.855300000000     0.792600000000     0          
C43      C      0.309100000000     0.815800000000     0.782300000000     0          
C44      C      0.278400000000     0.785000000000     0.915800000000     0          
C45      C      0.277500000000     0.783800000000     0.833100000000     0          
C46      C      0.310000000000     0.815200000000     0.961700000000     0          
O47      O      0.454800000000     0.955100000000     0.396400000000     0          
H48      H      0.136710000000     0.440450000000     0.841880000000     0          
H49      H      0.082190000000     0.436410000000     0.744910000000     0          
H50      H      0.172240000000     0.547120000000     0.631330000000     0          
H51      H      0.226570000000     0.545970000000     0.714540000000     0          
O52      O      0.894900000000     0.482400000000     0.580800000000     0          
O53      O      0.941600000000     0.534300000000     0.648900000000     0          
C54      C      0.906100000000     0.506600000000     0.629300000000     0          
C55      C      0.885600000000     0.538700000000     0.741400000000     0          
C56      C      0.874000000000     0.507600000000     0.683800000000     0          
C57      C      0.835600000000     0.477700000000     0.676100000000     0          
C58      C      0.805800000000     0.477700000000     0.723700000000     0          
C59      C      0.855300000000     0.536700000000     0.792600000000     0          
C60      C      0.815800000000     0.506700000000     0.782300000000     0          
C61      C      0.785000000000     0.506600000000     0.915800000000     0          
C62      C      0.783800000000     0.506300000000     0.833100000000     0          
C63      C      0.815200000000     0.505200000000     0.961700000000     0          
O64      O      0.955100000000     0.500300000000     0.396400000000     0          
H65      H      0.440450000000     0.303740000000     0.841880000000     0          
H66      H      0.436410000000     0.354220000000     0.744910000000     0          
H67      H      0.547120000000     0.374880000000     0.631330000000     0          
H68      H      0.545970000000     0.319400000000     0.714540000000     0          
O69      O      0.517600000000     0.412500000000     0.580800000000     0          
O70      O      0.465700000000     0.407300000000     0.648900000000     0          
C71      C      0.493400000000     0.399500000000     0.629300000000     0          
C72      C      0.461300000000     0.346900000000     0.741400000000     0          
C73      C      0.492400000000     0.366400000000     0.683800000000     0          
C74      C      0.522300000000     0.357900000000     0.676100000000     0          
C75      C      0.522300000000     0.328100000000     0.723700000000     0          
C76      C      0.463300000000     0.318600000000     0.792600000000     0          
C77      C      0.493300000000     0.309100000000     0.782300000000     0          
C78      C      0.493400000000     0.278400000000     0.915800000000     0          
C79      C      0.493700000000     0.277500000000     0.833100000000     0          
C80      C      0.494800000000     0.310000000000     0.961700000000     0          
O81      O      0.499700000000     0.454800000000     0.396400000000     0          
H82      H      0.696260000000     0.136710000000     0.841880000000     0          
H83      H      0.645780000000     0.082190000000     0.744910000000     0          
H84      H      0.625120000000     0.172240000000     0.631330000000     0          
H85      H      0.680600000000     0.226570000000     0.714540000000     0          
O86      O      0.587500000000     0.105100000000     0.580800000000     0          
O87      O      0.592700000000     0.058400000000     0.648900000000     0          
C88      C      0.600500000000     0.093900000000     0.629300000000     0          
C89      C      0.653100000000     0.114400000000     0.741400000000     0          
C90      C      0.633600000000     0.126000000000     0.683800000000     0          
C91      C      0.642100000000     0.164400000000     0.676100000000     0          
C92      C      0.671900000000     0.194200000000     0.723700000000     0          
C93      C      0.681400000000     0.144700000000     0.792600000000     0          
C94      C      0.690900000000     0.184200000000     0.782300000000     0          
C95      C      0.721600000000     0.215000000000     0.915800000000     0          
C96      C      0.722500000000     0.216200000000     0.833100000000     0          
C97      C      0.690000000000     0.184800000000     0.961700000000     0          
O98      O      0.545200000000     0.044900000000     0.396400000000     0          
H99      H      0.863290000000     0.559550000000     0.841880000000     0          
H100     H      0.917810000000     0.563590000000     0.744910000000     0          
H101     H      0.827760000000     0.452880000000     0.631330000000     0          
H102     H      0.773430000000     0.454030000000     0.714540000000     0          
O103     O      0.517600000000     0.105100000000     0.419200000000     0          
O104     O      0.465700000000     0.058400000000     0.351100000000     0          
C105     C      0.493400000000     0.093900000000     0.370700000000     0          
C106     C      0.461300000000     0.114400000000     0.258600000000     0          
C107     C      0.492400000000     0.126000000000     0.316200000000     0          
C108     C      0.522300000000     0.164400000000     0.323900000000     0          
C109     C      0.522300000000     0.194200000000     0.276300000000     0          
C110     C      0.463300000000     0.144700000000     0.207400000000     0          
C111     C      0.493300000000     0.184200000000     0.217700000000     0          
C112     C      0.493400000000     0.215000000000     0.084200000000     0          
C113     C      0.493700000000     0.216200000000     0.166900000000     0          
C114     C      0.494800000000     0.184800000000     0.038300000000     0          
O115     O      0.499700000000     0.044900000000     0.603600000000     0          
H116     H      0.696260000000     0.559550000000     0.158120000000     0          
H117     H      0.645780000000     0.563590000000     0.255090000000     0          
H118     H      0.625120000000     0.452880000000     0.368670000000     0          
H119     H      0.680600000000     0.454030000000     0.285460000000     0          
O120     O      0.587500000000     0.482400000000     0.419200000000     0          
O121     O      0.592700000000     0.534300000000     0.351100000000     0          
C122     C      0.600500000000     0.506600000000     0.370700000000     0          
C123     C      0.653100000000     0.538700000000     0.258600000000     0          
C124     C      0.633600000000     0.507600000000     0.316200000000     0          
C125     C      0.642100000000     0.477700000000     0.323900000000     0          
C126     C      0.671900000000     0.477700000000     0.276300000000     0          
C127     C      0.681400000000     0.536700000000     0.207400000000     0          
C128     C      0.690900000000     0.506700000000     0.217700000000     0          
C129     C      0.721600000000     0.506600000000     0.084200000000     0          
C130     C      0.722500000000     0.506300000000     0.166900000000     0          
C131     C      0.690000000000     0.505200000000     0.038300000000     0          
O132     O      0.545200000000     0.500300000000     0.603600000000     0          
H133     H      0.863290000000     0.303740000000     0.158120000000     0          
H134     H      0.917810000000     0.354220000000     0.255090000000     0          
H135     H      0.827760000000     0.374880000000     0.368670000000     0          
H136     H      0.773430000000     0.319400000000     0.285460000000     0          
O137     O      0.894900000000     0.412500000000     0.419200000000     0          
O138     O      0.941600000000     0.407300000000     0.351100000000     0          
C139     C      0.906100000000     0.399500000000     0.370700000000     0          
C140     C      0.885600000000     0.346900000000     0.258600000000     0          
C141     C      0.874000000000     0.366400000000     0.316200000000     0          
C142     C      0.835600000000     0.357900000000     0.323900000000     0          
C143     C      0.805800000000     0.328100000000     0.276300000000     0          
C144     C      0.855300000000     0.318600000000     0.207400000000     0          
C145     C      0.815800000000     0.309100000000     0.217700000000     0          
C146     C      0.785000000000     0.278400000000     0.084200000000     0          
C147     C      0.783800000000     0.277500000000     0.166900000000     0          
C148     C      0.815200000000     0.310000000000     0.038300000000     0          
O149     O      0.955100000000     0.454800000000     0.603600000000     0          
H150     H      0.440450000000     0.136710000000     0.158120000000     0          
H151     H      0.436410000000     0.082190000000     0.255090000000     0          
H152     H      0.547120000000     0.172240000000     0.368670000000     0          
H153     H      0.545970000000     0.226570000000     0.285460000000     0          
O154     O      0.482400000000     0.894900000000     0.419200000000     0          
O155     O      0.534300000000     0.941600000000     0.351100000000     0          
C156     C      0.506600000000     0.906100000000     0.370700000000     0          
C157     C      0.538700000000     0.885600000000     0.258600000000     0          
C158     C      0.507600000000     0.874000000000     0.316200000000     0          
C159     C      0.477700000000     0.835600000000     0.323900000000     0          
C160     C      0.477700000000     0.805800000000     0.276300000000     0          
C161     C      0.536700000000     0.855300000000     0.207400000000     0          
C162     C      0.506700000000     0.815800000000     0.217700000000     0          
C163     C      0.506600000000     0.785000000000     0.084200000000     0          
C164     C      0.506300000000     0.783800000000     0.166900000000     0          
C165     C      0.505200000000     0.815200000000     0.038300000000     0          
O166     O      0.500300000000     0.955100000000     0.603600000000     0          
H167     H      0.303740000000     0.440450000000     0.158120000000     0          
H168     H      0.354220000000     0.436410000000     0.255090000000     0          
H169     H      0.374880000000     0.547120000000     0.368670000000     0          
H170     H      0.319400000000     0.545970000000     0.285460000000     0          
O171     O      0.412500000000     0.517600000000     0.419200000000     0          
O172     O      0.407300000000     0.465700000000     0.351100000000     0          
C173     C      0.399500000000     0.493400000000     0.370700000000     0          
C174     C      0.346900000000     0.461300000000     0.258600000000     0          
C175     C      0.366400000000     0.492400000000     0.316200000000     0          
C176     C      0.357900000000     0.522300000000     0.323900000000     0          
C177     C      0.328100000000     0.522300000000     0.276300000000     0          
C178     C      0.318600000000     0.463300000000     0.207400000000     0          
C179     C      0.309100000000     0.493300000000     0.217700000000     0          
C180     C      0.278400000000     0.493400000000     0.084200000000     0          
C181     C      0.277500000000     0.493700000000     0.166900000000     0          
C182     C      0.310000000000     0.494800000000     0.038300000000     0          
O183     O      0.454800000000     0.499700000000     0.603600000000     0          
H184     H      0.136710000000     0.696260000000     0.158120000000     0          
H185     H      0.082190000000     0.645780000000     0.255090000000     0          
H186     H      0.172240000000     0.625120000000     0.368670000000     0          
H187     H      0.226570000000     0.680600000000     0.285460000000     0          
O188     O      0.105100000000     0.587500000000     0.419200000000     0          
O189     O      0.058400000000     0.592700000000     0.351100000000     0          
C190     C      0.093900000000     0.600500000000     0.370700000000     0          
C191     C      0.114400000000     0.653100000000     0.258600000000     0          
C192     C      0.126000000000     0.633600000000     0.316200000000     0          
C193     C      0.164400000000     0.642100000000     0.323900000000     0          
C194     C      0.194200000000     0.671900000000     0.276300000000     0          
C195     C      0.144700000000     0.681400000000     0.207400000000     0          
C196     C      0.184200000000     0.690900000000     0.217700000000     0          
C197     C      0.215000000000     0.721600000000     0.084200000000     0          
C198     C      0.216200000000     0.722500000000     0.166900000000     0          
C199     C      0.184800000000     0.690000000000     0.038300000000     0          
O200     O      0.044900000000     0.545200000000     0.603600000000     0          
H201     H      0.559550000000     0.863290000000     0.158120000000     0          
H202     H      0.563590000000     0.917810000000     0.255090000000     0          
H203     H      0.452880000000     0.827760000000     0.368670000000     0          
H204     H      0.454030000000     0.773430000000     0.285460000000     0          
O205     O      0.894900000000     0.482400000000     0.419200000000     0          
O206     O      0.941600000000     0.534300000000     0.351100000000     0          
C207     C      0.906100000000     0.506600000000     0.370700000000     0          
C208     C      0.885600000000     0.538700000000     0.258600000000     0          
C209     C      0.874000000000     0.507600000000     0.316200000000     0          
C210     C      0.835600000000     0.477700000000     0.323900000000     0          
C211     C      0.805800000000     0.477700000000     0.276300000000     0          
C212     C      0.855300000000     0.536700000000     0.207400000000     0          
C213     C      0.815800000000     0.506700000000     0.217700000000     0          
C214     C      0.785000000000     0.506600000000     0.084200000000     0          
C215     C      0.783800000000     0.506300000000     0.166900000000     0          
C216     C      0.815200000000     0.505200000000     0.038300000000     0          
O217     O      0.955100000000     0.500300000000     0.603600000000     0          
H218     H      0.440450000000     0.303740000000     0.158120000000     0          
H219     H      0.436410000000     0.354220000000     0.255090000000     0          
H220     H      0.547120000000     0.374880000000     0.368670000000     0          
H221     H      0.545970000000     0.319400000000     0.285460000000     0          
O222     O      0.517600000000     0.412500000000     0.419200000000     0          
O223     O      0.465700000000     0.407300000000     0.351100000000     0          
C224     C      0.493400000000     0.399500000000     0.370700000000     0          
C225     C      0.461300000000     0.346900000000     0.258600000000     0          
C226     C      0.492400000000     0.366400000000     0.316200000000     0          
C227     C      0.522300000000     0.357900000000     0.323900000000     0          
C228     C      0.522300000000     0.328100000000     0.276300000000     0          
C229     C      0.463300000000     0.318600000000     0.207400000000     0          
C230     C      0.493300000000     0.309100000000     0.217700000000     0          
C231     C      0.493400000000     0.278400000000     0.084200000000     0          
C232     C      0.493700000000     0.277500000000     0.166900000000     0          
C233     C      0.494800000000     0.310000000000     0.038300000000     0          
O234     O      0.499700000000     0.454800000000     0.603600000000     0          
H235     H      0.696260000000     0.136710000000     0.158120000000     0          
H236     H      0.645780000000     0.082190000000     0.255090000000     0          
H237     H      0.625120000000     0.172240000000     0.368670000000     0          
H238     H      0.680600000000     0.226570000000     0.285460000000     0          
O239     O      0.587500000000     0.105100000000     0.419200000000     0          
O240     O      0.592700000000     0.058400000000     0.351100000000     0          
C241     C      0.600500000000     0.093900000000     0.370700000000     0          
C242     C      0.653100000000     0.114400000000     0.258600000000     0          
C243     C      0.633600000000     0.126000000000     0.316200000000     0          
C244     C      0.642100000000     0.164400000000     0.323900000000     0          
C245     C      0.671900000000     0.194200000000     0.276300000000     0          
C246     C      0.681400000000     0.144700000000     0.207400000000     0          
C247     C      0.690900000000     0.184200000000     0.217700000000     0          
C248     C      0.721600000000     0.215000000000     0.084200000000     0          
C249     C      0.722500000000     0.216200000000     0.166900000000     0          
C250     C      0.690000000000     0.184800000000     0.038300000000     0          
O251     O      0.545200000000     0.044900000000     0.603600000000     0          
H252     H      0.863290000000     0.559550000000     0.158120000000     0          
H253     H      0.917810000000     0.563590000000     0.255090000000     0          
H254     H      0.827760000000     0.452880000000     0.368670000000     0          
H255     H      0.773430000000     0.454030000000     0.285460000000     0          
O256     O      0.105100000000     0.517600000000     0.419200000000     0          
O257     O      0.058400000000     0.465700000000     0.351100000000     0          
C258     C      0.093900000000     0.493400000000     0.370700000000     0          
C259     C      0.114400000000     0.461300000000     0.258600000000     0          
C260     C      0.126000000000     0.492400000000     0.316200000000     0          
C261     C      0.164400000000     0.522300000000     0.323900000000     0          
C262     C      0.194200000000     0.522300000000     0.276300000000     0          
C263     C      0.144700000000     0.463300000000     0.207400000000     0          
C264     C      0.184200000000     0.493300000000     0.217700000000     0          
C265     C      0.215000000000     0.493400000000     0.084200000000     0          
C266     C      0.216200000000     0.493700000000     0.166900000000     0          
C267     C      0.184800000000     0.494800000000     0.038300000000     0          
O268     O      0.044900000000     0.499700000000     0.603600000000     0          
H269     H      0.559550000000     0.696260000000     0.158120000000     0          
H270     H      0.563590000000     0.645780000000     0.255090000000     0          
H271     H      0.452880000000     0.625120000000     0.368670000000     0          
H272     H      0.454030000000     0.680600000000     0.285460000000     0          
O273     O      0.482400000000     0.587500000000     0.419200000000     0          
O274     O      0.534300000000     0.592700000000     0.351100000000     0          
C275     C      0.506600000000     0.600500000000     0.370700000000     0          
C276     C      0.538700000000     0.653100000000     0.258600000000     0          
C277     C      0.507600000000     0.633600000000     0.316200000000     0          
C278     C      0.477700000000     0.642100000000     0.323900000000     0          
C279     C      0.477700000000     0.671900000000     0.276300000000     0          
C280     C      0.536700000000     0.681400000000     0.207400000000     0          
C281     C      0.506700000000     0.690900000000     0.217700000000     0          
C282     C      0.506600000000     0.721600000000     0.084200000000     0          
C283     C      0.506300000000     0.722500000000     0.166900000000     0          
C284     C      0.505200000000     0.690000000000     0.038300000000     0          
O285     O      0.500300000000     0.545200000000     0.603600000000     0          
H286     H      0.303740000000     0.863290000000     0.158120000000     0          
H287     H      0.354220000000     0.917810000000     0.255090000000     0          
H288     H      0.374880000000     0.827760000000     0.368670000000     0          
H289     H      0.319400000000     0.773430000000     0.285460000000     0          
O290     O      0.412500000000     0.894900000000     0.419200000000     0          
O291     O      0.407300000000     0.941600000000     0.351100000000     0          
C292     C      0.399500000000     0.906100000000     0.370700000000     0          
C293     C      0.346900000000     0.885600000000     0.258600000000     0          
C294     C      0.366400000000     0.874000000000     0.316200000000     0          
C295     C      0.357900000000     0.835600000000     0.323900000000     0          
C296     C      0.328100000000     0.805800000000     0.276300000000     0          
C297     C      0.318600000000     0.855300000000     0.207400000000     0          
C298     C      0.309100000000     0.815800000000     0.217700000000     0          
C299     C      0.278400000000     0.785000000000     0.084200000000     0          
C300     C      0.277500000000     0.783800000000     0.166900000000     0          
C301     C      0.310000000000     0.815200000000     0.038300000000     0          
O302     O      0.454800000000     0.955100000000     0.603600000000     0          
H303     H      0.136710000000     0.440450000000     0.158120000000     0          
H304     H      0.082190000000     0.436410000000     0.255090000000     0          
H305     H      0.172240000000     0.547120000000     0.368670000000     0          
H306     H      0.226570000000     0.545970000000     0.285460000000     0          
O307     O      0.482400000000     0.894900000000     0.580800000000     0          
O308     O      0.534300000000     0.941600000000     0.648900000000     0          
C309     C      0.506600000000     0.906100000000     0.629300000000     0          
C310     C      0.538700000000     0.885600000000     0.741400000000     0          
C311     C      0.507600000000     0.874000000000     0.683800000000     0          
C312     C      0.477700000000     0.835600000000     0.676100000000     0          
C313     C      0.477700000000     0.805800000000     0.723700000000     0          
C314     C      0.536700000000     0.855300000000     0.792600000000     0          
C315     C      0.506700000000     0.815800000000     0.782300000000     0          
C316     C      0.506600000000     0.785000000000     0.915800000000     0          
C317     C      0.506300000000     0.783800000000     0.833100000000     0          
C318     C      0.505200000000     0.815200000000     0.961700000000     0          
O319     O      0.500300000000     0.955100000000     0.396400000000     0          
H320     H      0.303740000000     0.440450000000     0.841880000000     0          
H321     H      0.354220000000     0.436410000000     0.744910000000     0          
H322     H      0.374880000000     0.547120000000     0.631330000000     0          
H323     H      0.319400000000     0.545970000000     0.714540000000     0          
O324     O      0.412500000000     0.517600000000     0.580800000000     0          
O325     O      0.407300000000     0.465700000000     0.648900000000     0          
C326     C      0.399500000000     0.493400000000     0.629300000000     0          
C327     C      0.346900000000     0.461300000000     0.741400000000     0          
C328     C      0.366400000000     0.492400000000     0.683800000000     0          
C329     C      0.357900000000     0.522300000000     0.676100000000     0          
C330     C      0.328100000000     0.522300000000     0.723700000000     0          
C331     C      0.318600000000     0.463300000000     0.792600000000     0          
C332     C      0.309100000000     0.493300000000     0.782300000000     0          
C333     C      0.278400000000     0.493400000000     0.915800000000     0          
C334     C      0.277500000000     0.493700000000     0.833100000000     0          
C335     C      0.310000000000     0.494800000000     0.961700000000     0          
O336     O      0.454800000000     0.499700000000     0.396400000000     0          
H337     H      0.136710000000     0.696260000000     0.841880000000     0          
H338     H      0.082190000000     0.645780000000     0.744910000000     0          
H339     H      0.172240000000     0.625120000000     0.631330000000     0          
H340     H      0.226570000000     0.680600000000     0.714540000000     0          
O341     O      0.105100000000     0.587500000000     0.580800000000     0          
O342     O      0.058400000000     0.592700000000     0.648900000000     0          
C343     C      0.093900000000     0.600500000000     0.629300000000     0          
C344     C      0.114400000000     0.653100000000     0.741400000000     0          
C345     C      0.126000000000     0.633600000000     0.683800000000     0          
C346     C      0.164400000000     0.642100000000     0.676100000000     0          
C347     C      0.194200000000     0.671900000000     0.723700000000     0          
C348     C      0.144700000000     0.681400000000     0.792600000000     0          
C349     C      0.184200000000     0.690900000000     0.782300000000     0          
C350     C      0.215000000000     0.721600000000     0.915800000000     0          
C351     C      0.216200000000     0.722500000000     0.833100000000     0          
C352     C      0.184800000000     0.690000000000     0.961700000000     0          
O353     O      0.044900000000     0.545200000000     0.396400000000     0          
H354     H      0.559550000000     0.863290000000     0.841880000000     0          
H355     H      0.563590000000     0.917810000000     0.744910000000     0          
H356     H      0.452880000000     0.827760000000     0.631330000000     0          
H357     H      0.454030000000     0.773430000000     0.714540000000     0          
O358     O      0.517600000000     0.105100000000     0.580800000000     0          
O359     O      0.465700000000     0.058400000000     0.648900000000     0          
C360     C      0.493400000000     0.093900000000     0.629300000000     0          
C361     C      0.461300000000     0.114400000000     0.741400000000     0          
C362     C      0.492400000000     0.126000000000     0.683800000000     0          
C363     C      0.522300000000     0.164400000000     0.676100000000     0          
C364     C      0.522300000000     0.194200000000     0.723700000000     0          
C365     C      0.463300000000     0.144700000000     0.792600000000     0          
C366     C      0.493300000000     0.184200000000     0.782300000000     0          
C367     C      0.493400000000     0.215000000000     0.915800000000     0          
C368     C      0.493700000000     0.216200000000     0.833100000000     0          
C369     C      0.494800000000     0.184800000000     0.961700000000     0          
O370     O      0.499700000000     0.044900000000     0.396400000000     0          
H371     H      0.696260000000     0.559550000000     0.841880000000     0          
H372     H      0.645780000000     0.563590000000     0.744910000000     0          
H373     H      0.625120000000     0.452880000000     0.631330000000     0          
H374     H      0.680600000000     0.454030000000     0.714540000000     0          
O375     O      0.587500000000     0.482400000000     0.580800000000     0          
O376     O      0.592700000000     0.534300000000     0.648900000000     0          
C377     C      0.600500000000     0.506600000000     0.629300000000     0          
C378     C      0.653100000000     0.538700000000     0.741400000000     0          
C379     C      0.633600000000     0.507600000000     0.683800000000     0          
C380     C      0.642100000000     0.477700000000     0.676100000000     0          
C381     C      0.671900000000     0.477700000000     0.723700000000     0          
C382     C      0.681400000000     0.536700000000     0.792600000000     0          
C383     C      0.690900000000     0.506700000000     0.782300000000     0          
C384     C      0.721600000000     0.506600000000     0.915800000000     0          
C385     C      0.722500000000     0.506300000000     0.833100000000     0          
C386     C      0.690000000000     0.505200000000     0.961700000000     0          
O387     O      0.545200000000     0.500300000000     0.396400000000     0          
H388     H      0.863290000000     0.303740000000     0.841880000000     0          
H389     H      0.917810000000     0.354220000000     0.744910000000     0          
H390     H      0.827760000000     0.374880000000     0.631330000000     0          
H391     H      0.773430000000     0.319400000000     0.714540000000     0          
O392     O      0.894900000000     0.412500000000     0.580800000000     0          
O393     O      0.941600000000     0.407300000000     0.648900000000     0          
C394     C      0.906100000000     0.399500000000     0.629300000000     0          
C395     C      0.885600000000     0.346900000000     0.741400000000     0          
C396     C      0.874000000000     0.366400000000     0.683800000000     0          
C397     C      0.835600000000     0.357900000000     0.676100000000     0          
C398     C      0.805800000000     0.328100000000     0.723700000000     0          
C399     C      0.855300000000     0.318600000000     0.792600000000     0          
C400     C      0.815800000000     0.309100000000     0.782300000000     0          
C401     C      0.785000000000     0.278400000000     0.915800000000     0          
C402     C      0.783800000000     0.277500000000     0.833100000000     0          
C403     C      0.815200000000     0.310000000000     0.961700000000     0          
O404     O      0.955100000000     0.454800000000     0.396400000000     0          
H405     H      0.440450000000     0.136710000000     0.841880000000     0          
H406     H      0.436410000000     0.082190000000     0.744910000000     0          
H407     H      0.547120000000     0.172240000000     0.631330000000     0          
H408     H      0.545970000000     0.226570000000     0.714540000000     0          
Zr409    Zr     0.072750000000     0.536370000000     0.500000000000     0          
Zr410    Zr     0.463630000000     0.536370000000     0.500000000000     0          
Zr411    Zr     0.463630000000     0.927250000000     0.500000000000     0          
Zr412    Zr     0.927250000000     0.463630000000     0.500000000000     0          
Zr413    Zr     0.536370000000     0.463630000000     0.500000000000     0          
Zr414    Zr     0.536380000000     0.072750000000     0.500000000000     0          
Zr415    Zr     0.000000000000     0.455140000000     0.395390000000     0          
O416     O      0.000000000000     0.469600000000     0.267700000000     0          
C417     C      0.000000000000     0.459700000000     0.117000000000     0          
C418     C      0.000000000000     0.453900000000     0.029000000000     0          
Zr419    Zr     0.544860000000     0.544860000000     0.395390000000     0          
O420     O      0.530400000000     0.530400000000     0.267700000000     0          
C421     C      0.513800000000     0.513800000000     0.014000000000     0          
C422     C      0.519500000000     0.519500000000     0.097000000000     0          
Zr423    Zr     0.455140000000     0.000000000000     0.395390000000     0          
O424     O      0.469600000000     0.000000000000     0.267700000000     0          
C425     C      0.459700000000     0.000000000000     0.117000000000     0          
C426     C      0.453900000000     0.000000000000     0.029000000000     0          
Zr427    Zr     0.000000000000     0.544860000000     0.395390000000     0          
O428     O      0.000000000000     0.530400000000     0.267700000000     0          
C429     C      0.000000000000     0.513800000000     0.014000000000     0          
C430     C      0.000000000000     0.519500000000     0.097000000000     0          
Zr431    Zr     0.455140000000     0.455140000000     0.395390000000     0          
O432     O      0.469600000000     0.469600000000     0.267700000000     0          
C433     C      0.459700000000     0.459700000000     0.117000000000     0          
C434     C      0.453900000000     0.453900000000     0.029000000000     0          
Zr435    Zr     0.544860000000     0.000000000000     0.395390000000     0          
O436     O      0.530400000000     0.000000000000     0.267700000000     0          
C437     C      0.513800000000     0.000000000000     0.014000000000     0          
C438     C      0.519500000000     0.000000000000     0.097000000000     0          
Zr439    Zr     0.455140000000     0.000000000000     0.604610000000     0          
O440     O      0.469600000000     0.000000000000     0.732300000000     0          
C441     C      0.486200000000     0.000000000000     0.986000000000     0          
C442     C      0.480500000000     0.000000000000     0.903000000000     0          
Zr443    Zr     0.544860000000     0.544860000000     0.604610000000     0          
O444     O      0.530400000000     0.530400000000     0.732300000000     0          
C445     C      0.540300000000     0.540300000000     0.883000000000     0          
C446     C      0.546100000000     0.546100000000     0.971000000000     0          
Zr447    Zr     0.000000000000     0.455140000000     0.604610000000     0          
O448     O      0.000000000000     0.469600000000     0.732300000000     0          
C449     C      0.000000000000     0.486200000000     0.986000000000     0          
C450     C      0.000000000000     0.480500000000     0.903000000000     0          
Zr451    Zr     0.544860000000     0.000000000000     0.604610000000     0          
O452     O      0.530400000000     0.000000000000     0.732300000000     0          
C453     C      0.540300000000     0.000000000000     0.883000000000     0          
C454     C      0.546100000000     0.000000000000     0.971000000000     0          
Zr455    Zr     0.455140000000     0.455140000000     0.604610000000     0          
O456     O      0.469600000000     0.469600000000     0.732300000000     0          
C457     C      0.486200000000     0.486200000000     0.986000000000     0          
C458     C      0.480500000000     0.480500000000     0.903000000000     0          
Zr459    Zr     0.000000000000     0.544860000000     0.604610000000     0          
O460     O      0.000000000000     0.530400000000     0.732300000000     0          
C461     C      0.000000000000     0.540300000000     0.883000000000     0          
C462     C      0.000000000000     0.546100000000     0.971000000000     0          
O463     O      0.037300000000     0.476100000000     0.500000000000     0          
O464     O      0.034600000000     0.460100000000     0.500000000000     0          
O465     O      0.523900000000     0.561200000000     0.500000000000     0          
O466     O      0.539900000000     0.574500000000     0.500000000000     0          
O467     O      0.438800000000     0.962700000000     0.500000000000     0          
O468     O      0.425500000000     0.965400000000     0.500000000000     0          
O469     O      0.962700000000     0.523900000000     0.500000000000     0          
O470     O      0.965400000000     0.539900000000     0.500000000000     0          
O471     O      0.476100000000     0.438800000000     0.500000000000     0          
O472     O      0.460100000000     0.425500000000     0.500000000000     0          
O473     O      0.561200000000     0.037300000000     0.500000000000     0          
O474     O      0.574500000000     0.034600000000     0.500000000000     0          
O475     O      0.476100000000     0.037300000000     0.500000000000     0          
O476     O      0.460100000000     0.034600000000     0.500000000000     0          
O477     O      0.561200000000     0.523900000000     0.500000000000     0          
O478     O      0.574500000000     0.539900000000     0.500000000000     0          
O479     O      0.962700000000     0.438800000000     0.500000000000     0          
O480     O      0.965400000000     0.425500000000     0.500000000000     0          
O481     O      0.523900000000     0.962700000000     0.500000000000     0          
O482     O      0.539900000000     0.965400000000     0.500000000000     0          
O483     O      0.438800000000     0.476100000000     0.500000000000     0          
O484     O      0.425500000000     0.460100000000     0.500000000000     0          
O485     O      0.037300000000     0.561200000000     0.500000000000     0          
O486     O      0.034600000000     0.574500000000     0.500000000000     0          
O487     O      0.036700000000     0.518350000000     0.396000000000     0          
O488     O      0.481650000000     0.518350000000     0.396000000000     0          
O489     O      0.481650000000     0.963300000000     0.396000000000     0          
O490     O      0.963300000000     0.481650000000     0.396000000000     0          
O491     O      0.518350000000     0.481650000000     0.396000000000     0          
O492     O      0.518350000000     0.036700000000     0.396000000000     0          
O493     O      0.518350000000     0.036700000000     0.604000000000     0          
O494     O      0.518350000000     0.481650000000     0.604000000000     0          
O495     O      0.963300000000     0.481650000000     0.604000000000     0          
O496     O      0.481650000000     0.963300000000     0.604000000000     0          
O497     O      0.481650000000     0.518350000000     0.604000000000     0          
O498     O      0.036700000000     0.518350000000     0.604000000000     0          
C499     C      0.246800000000     0.493600000000     0.793800000000     0          
C500     C      0.246250000000     0.492500000000     0.957200000000     0          
C501     C      0.506400000000     0.753200000000     0.793800000000     0          
C502     C      0.507500000000     0.753750000000     0.957200000000     0          
C503     C      0.246800000000     0.753200000000     0.793800000000     0          
C504     C      0.246250000000     0.753750000000     0.957200000000     0          
C505     C      0.753200000000     0.506400000000     0.793800000000     0          
C506     C      0.753750000000     0.507500000000     0.957200000000     0          
C507     C      0.493600000000     0.246800000000     0.793800000000     0          
C508     C      0.492500000000     0.246250000000     0.957200000000     0          
C509     C      0.753200000000     0.246800000000     0.793800000000     0          
C510     C      0.753750000000     0.246250000000     0.957200000000     0          
C511     C      0.493600000000     0.246800000000     0.206200000000     0          
C512     C      0.492500000000     0.246250000000     0.042800000000     0          
C513     C      0.753200000000     0.506400000000     0.206200000000     0          
C514     C      0.753750000000     0.507500000000     0.042800000000     0          
C515     C      0.753200000000     0.246800000000     0.206200000000     0          
C516     C      0.753750000000     0.246250000000     0.042800000000     0          
C517     C      0.506400000000     0.753200000000     0.206200000000     0          
C518     C      0.507500000000     0.753750000000     0.042800000000     0          
C519     C      0.246800000000     0.493600000000     0.206200000000     0          
C520     C      0.246250000000     0.492500000000     0.042800000000     0          
C521     C      0.246800000000     0.753200000000     0.206200000000     0          
C522     C      0.246250000000     0.753750000000     0.042800000000     0          
C523     C      0.000000000000     0.500000000000     0.151500000000     0          
C524     C      0.000000000000     0.500000000000     0.234800000000     0          
C525     C      0.500000000000     0.500000000000     0.151500000000     0          
C526     C      0.500000000000     0.500000000000     0.234800000000     0          
C527     C      0.500000000000     0.000000000000     0.151500000000     0          
C528     C      0.500000000000     0.000000000000     0.234800000000     0          
C529     C      0.500000000000     0.000000000000     0.848500000000     0          
C530     C      0.500000000000     0.000000000000     0.765200000000     0          
C531     C      0.500000000000     0.500000000000     0.848500000000     0          
C532     C      0.500000000000     0.500000000000     0.765200000000     0          
C533     C      0.000000000000     0.500000000000     0.848500000000     0          
C534     C      0.000000000000     0.500000000000     0.765200000000     0          
H535     H      0.159390000000     0.495980000000     0.930640000000     0          
H536     H      0.336590000000     0.495980000000     0.930640000000     0          
H537     H      0.247220000000     0.493430000000     0.726100000000     0          
H538     H      0.663410000000     0.504020000000     0.069360000000     0          
H539     H      0.840610000000     0.336590000000     0.069360000000     0          
H540     H      0.840610000000     0.504020000000     0.069360000000     0          
H541     H      0.663410000000     0.159390000000     0.069360000000     0          
H542     H      0.753790000000     0.506570000000     0.273900000000     0          
H543     H      0.752780000000     0.246210000000     0.273900000000     0          
H544     H      0.840610000000     0.504020000000     0.930640000000     0          
H545     H      0.663410000000     0.159390000000     0.930640000000     0          
H546     H      0.663410000000     0.504020000000     0.930640000000     0          
H547     H      0.840610000000     0.336590000000     0.930640000000     0          
H548     H      0.752780000000     0.506570000000     0.726100000000     0          
H549     H      0.753790000000     0.247220000000     0.726100000000     0          
H550     H      0.336590000000     0.495980000000     0.069360000000     0          
H551     H      0.159390000000     0.663410000000     0.069360000000     0          
H552     H      0.159390000000     0.495980000000     0.069360000000     0          
H553     H      0.336590000000     0.840610000000     0.069360000000     0          
H554     H      0.246210000000     0.493430000000     0.273900000000     0          
H555     H      0.247220000000     0.753790000000     0.273900000000     0          
H556     H      0.336590000000     0.840610000000     0.930640000000     0          
H557     H      0.159390000000     0.663410000000     0.930640000000     0          
H558     H      0.246210000000     0.752780000000     0.726100000000     0          
H559     H      0.495980000000     0.336590000000     0.930640000000     0          
H560     H      0.495980000000     0.159390000000     0.930640000000     0          
H561     H      0.493430000000     0.246210000000     0.726100000000     0          
H562     H      0.495980000000     0.159390000000     0.069360000000     0          
H563     H      0.495980000000     0.336590000000     0.069360000000     0          
H564     H      0.493430000000     0.247220000000     0.273900000000     0          
H565     H      0.504020000000     0.840610000000     0.069360000000     0          
H566     H      0.504020000000     0.663410000000     0.069360000000     0          
H567     H      0.506570000000     0.752780000000     0.273900000000     0          
H568     H      0.504020000000     0.663410000000     0.930640000000     0          
H569     H      0.504020000000     0.840610000000     0.930640000000     0          
H570     H      0.506570000000     0.753790000000     0.726100000000     0          
H571     H      0.453150000000     0.000000000000     0.878760000000     0          
H572     H      0.563170000000     0.000000000000     0.840690000000     0          
H573     H      0.573380000000     0.000000000000     0.995640000000     0          
H574     H      0.436830000000     0.000000000000     0.159310000000     0          
H575     H      0.426620000000     0.000000000000     0.004360000000     0          
H576     H      0.546850000000     0.000000000000     0.121240000000     0          
H577     H      0.563170000000     0.563170000000     0.840690000000     0          
H578     H      0.573380000000     0.573380000000     0.995640000000     0          
H579     H      0.453150000000     0.453150000000     0.878760000000     0          
H580     H      0.546850000000     0.546850000000     0.121240000000     0          
H581     H      0.436830000000     0.436830000000     0.159310000000     0          
H582     H      0.426620000000     0.426620000000     0.004360000000     0          
H583     H      0.000000000000     0.453150000000     0.878760000000     0          
H584     H      0.000000000000     0.563170000000     0.840690000000     0          
H585     H      0.000000000000     0.573380000000     0.995640000000     0          
H586     H      0.000000000000     0.436830000000     0.159310000000     0          
H587     H      0.000000000000     0.426620000000     0.004360000000     0          
H588     H      0.000000000000     0.546850000000     0.121240000000     0          


