data_YEYCUC

_audit_creation_method RASPA-1.0
_audit_creation_date 2020-4-3
_audit_author_name 'Rocio Bueno-Perez'

_cell_length_a    32.657
_cell_length_b    32.657
_cell_length_c    32.657
_cell_angle_alpha 90
_cell_angle_beta  90
_cell_angle_gamma 90
_cell_volume      34828

_symmetry_cell_setting          cubic
_symmetry_space_group_name_Hall 'P 1'
_symmetry_space_group_name_H-M  'P 1'
_symmetry_Int_Tables_number     1

_symmetry_equiv_pos_as_xyz 'x,y,z'

loop_
_atom_site_label
_atom_site_type_symbol
_atom_site_fract_x
_atom_site_fract_y
_atom_site_fract_z
_atom_site_charge
Zr1      Zr     0.075350000000     0.500000000000     0.000000000000     0          
O1       O      0.037070000000     0.462930000000     0.962930000000     0          
O2       O      0.108180000000     0.441350000000     0.000000000000     0          
C1       C      0.094670000000     0.405330000000     0.000000000000     0          
C2       C      0.127600000000     0.372400000000     0.000000000000     0          
C3       C      0.168710000000     0.383400000000     0.000000000000     0          
H1       H      0.176200000000     0.411500000000     0.000000000000     0          
C4       C      0.199200000000     0.353000000000     0.000000000000     0          
H2       H      0.227400000000     0.360400000000     0.000000000000     0          
C5       C      0.187600000000     0.312400000000     0.000000000000     0          
C6       C      0.220330000000     0.279670000000     0.000000000000     0          
C7       C      0.234950000000     0.265050000000     0.037180000000     0          
C8       C      0.218400000000     0.281600000000     0.077700000000     0          
H3       H      0.198100000000     0.301900000000     0.071900000000     0          
H4       H      0.206300000000     0.260400000000     0.093200000000     0          
O2VB     O      0.391820000000     0.058650000000     0.000000000000     0          
C1R      C      0.405330000000     0.094670000000     0.000000000000     0          
C2R      C      0.372400000000     0.127600000000     0.000000000000     0          
C3VB     C      0.331290000000     0.116600000000     0.000000000000     0          
H1VB     H      0.323800000000     0.088500000000     0.000000000000     0          
C4VB     C      0.300800000000     0.147000000000     0.000000000000     0          
H2VB     H      0.272600000000     0.139600000000     0.000000000000     0          
C5R      C      0.312400000000     0.187600000000     0.000000000000     0          
C6R      C      0.279670000000     0.220330000000     0.000000000000     0          
C7VB     C      0.265050000000     0.234950000000     0.037180000000     0          
C8VB     C      0.281600000000     0.218400000000     0.077700000000     0          
H3VB     H      0.301900000000     0.198100000000     0.071900000000     0          
H4VB     H      0.293700000000     0.239600000000     0.093200000000     0          
O2MC     O      0.058650000000     0.391820000000     0.000000000000     0          
C3MC     C      0.116600000000     0.331290000000     0.000000000000     0          
H1MC     H      0.088500000000     0.323800000000     0.000000000000     0          
C4MC     C      0.147000000000     0.300800000000     0.000000000000     0          
H2MC     H      0.139600000000     0.272600000000     0.000000000000     0          
C7MC     C      0.234950000000     0.265050000000     0.962820000000     0          
C8MC     C      0.218400000000     0.281600000000     0.922300000000     0          
H3MC     H      0.198100000000     0.301900000000     0.928100000000     0          
H4MC     H      0.239600000000     0.293700000000     0.906800000000     0          
H4TC     H      0.206300000000     0.260400000000     0.906800000000     0          
O2R      O      0.441350000000     0.108180000000     0.000000000000     0          
C3R      C      0.383400000000     0.168710000000     0.000000000000     0          
H1R      H      0.411500000000     0.176200000000     0.000000000000     0          
C4R      C      0.353000000000     0.199200000000     0.000000000000     0          
H2R      H      0.360400000000     0.227400000000     0.000000000000     0          
H4KD     H      0.260400000000     0.206300000000     0.093200000000     0          
C7R      C      0.265050000000     0.234950000000     0.962820000000     0          
C8R      C      0.281600000000     0.218400000000     0.922300000000     0          
H3R      H      0.301900000000     0.198100000000     0.928100000000     0          
H4LF     H      0.293700000000     0.239600000000     0.906800000000     0          
H4DG     H      0.239600000000     0.293700000000     0.093200000000     0          
H4R      H      0.260400000000     0.206300000000     0.906800000000     0          
Zr1A     Zr     0.500000000000     0.075350000000     0.000000000000     0          
O2A      O      0.558650000000     0.108180000000     0.000000000000     0          
C1A      C      0.594670000000     0.094670000000     0.000000000000     0          
C2A      C      0.627600000000     0.127600000000     0.000000000000     0          
C3A      C      0.616600000000     0.168710000000     0.000000000000     0          
H1A      H      0.588500000000     0.176200000000     0.000000000000     0          
C4A      C      0.647000000000     0.199200000000     0.000000000000     0          
H2A      H      0.639600000000     0.227400000000     0.000000000000     0          
C5A      C      0.687600000000     0.187600000000     0.000000000000     0          
C6A      C      0.720330000000     0.220330000000     0.000000000000     0          
C7A      C      0.734950000000     0.234950000000     0.037180000000     0          
C8A      C      0.718400000000     0.218400000000     0.077700000000     0          
H3A      H      0.698100000000     0.198100000000     0.071900000000     0          
H4A      H      0.739600000000     0.206300000000     0.093200000000     0          
O2WB     O      0.941350000000     0.391820000000     0.000000000000     0          
C1H      C      0.905330000000     0.405330000000     0.000000000000     0          
C2H      C      0.872400000000     0.372400000000     0.000000000000     0          
C3WB     C      0.883400000000     0.331290000000     0.000000000000     0          
H1WB     H      0.911500000000     0.323800000000     0.000000000000     0          
C4WB     C      0.853000000000     0.300800000000     0.000000000000     0          
H2WB     H      0.860400000000     0.272600000000     0.000000000000     0          
C5H      C      0.812400000000     0.312400000000     0.000000000000     0          
C6H      C      0.779670000000     0.279670000000     0.000000000000     0          
C7WB     C      0.765050000000     0.265050000000     0.037180000000     0          
C8WB     C      0.781600000000     0.281600000000     0.077700000000     0          
H3WB     H      0.801900000000     0.301900000000     0.071900000000     0          
H4WB     H      0.760400000000     0.293700000000     0.093200000000     0          
O2YB     O      0.608180000000     0.058650000000     0.000000000000     0          
C3YB     C      0.668710000000     0.116600000000     0.000000000000     0          
H1YB     H      0.676200000000     0.088500000000     0.000000000000     0          
C4YB     C      0.699200000000     0.147000000000     0.000000000000     0          
H2YB     H      0.727400000000     0.139600000000     0.000000000000     0          
C7YB     C      0.734950000000     0.234950000000     0.962820000000     0          
C8YB     C      0.718400000000     0.218400000000     0.922300000000     0          
H3YB     H      0.698100000000     0.198100000000     0.928100000000     0          
H4YB     H      0.706300000000     0.239600000000     0.906800000000     0          
H4UC     H      0.739600000000     0.206300000000     0.906800000000     0          
O2H      O      0.891820000000     0.441350000000     0.000000000000     0          
C3H      C      0.831290000000     0.383400000000     0.000000000000     0          
H1H      H      0.823800000000     0.411500000000     0.000000000000     0          
C4H      C      0.800800000000     0.353000000000     0.000000000000     0          
H2H      H      0.772600000000     0.360400000000     0.000000000000     0          
H4WC     H      0.793700000000     0.260400000000     0.093200000000     0          
C7H      C      0.765050000000     0.265050000000     0.962820000000     0          
C8H      C      0.781600000000     0.281600000000     0.922300000000     0          
H3H      H      0.801900000000     0.301900000000     0.928100000000     0          
H4MF     H      0.760400000000     0.293700000000     0.906800000000     0          
H4TF     H      0.706300000000     0.239600000000     0.093200000000     0          
H4H      H      0.793700000000     0.260400000000     0.906800000000     0          
Zr1C     Zr     0.500000000000     0.924650000000     0.000000000000     0          
O2C      O      0.441350000000     0.891820000000     0.000000000000     0          
C1C      C      0.405330000000     0.905330000000     0.000000000000     0          
C2C      C      0.372400000000     0.872400000000     0.000000000000     0          
C3C      C      0.383400000000     0.831290000000     0.000000000000     0          
H1C      H      0.411500000000     0.823800000000     0.000000000000     0          
C4C      C      0.353000000000     0.800800000000     0.000000000000     0          
H2C      H      0.360400000000     0.772600000000     0.000000000000     0          
C5C      C      0.312400000000     0.812400000000     0.000000000000     0          
C6C      C      0.279670000000     0.779670000000     0.000000000000     0          
C7C      C      0.265050000000     0.765050000000     0.037180000000     0          
C8C      C      0.281600000000     0.781600000000     0.077700000000     0          
H3C      H      0.301900000000     0.801900000000     0.071900000000     0          
H4C      H      0.260400000000     0.793700000000     0.093200000000     0          
O2UB     O      0.058650000000     0.608180000000     0.000000000000     0          
C1E      C      0.094670000000     0.594670000000     0.000000000000     0          
C2E      C      0.127600000000     0.627600000000     0.000000000000     0          
C3UB     C      0.116600000000     0.668710000000     0.000000000000     0          
H1UB     H      0.088500000000     0.676200000000     0.000000000000     0          
C4UB     C      0.147000000000     0.699200000000     0.000000000000     0          
H2UB     H      0.139600000000     0.727400000000     0.000000000000     0          
C5E      C      0.187600000000     0.687600000000     0.000000000000     0          
C6E      C      0.220330000000     0.720330000000     0.000000000000     0          
C7UB     C      0.234950000000     0.734950000000     0.037180000000     0          
C8UB     C      0.218400000000     0.718400000000     0.077700000000     0          
H3UB     H      0.198100000000     0.698100000000     0.071900000000     0          
H4UB     H      0.239600000000     0.706300000000     0.093200000000     0          
O2BC     O      0.391820000000     0.941350000000     0.000000000000     0          
C3BC     C      0.331290000000     0.883400000000     0.000000000000     0          
H1BC     H      0.323800000000     0.911500000000     0.000000000000     0          
C4BC     C      0.300800000000     0.853000000000     0.000000000000     0          
H2BC     H      0.272600000000     0.860400000000     0.000000000000     0          
C7BC     C      0.265050000000     0.765050000000     0.962820000000     0          
C8BC     C      0.281600000000     0.781600000000     0.922300000000     0          
H3BC     H      0.301900000000     0.801900000000     0.928100000000     0          
H4BC     H      0.293700000000     0.760400000000     0.906800000000     0          
H4SC     H      0.260400000000     0.793700000000     0.906800000000     0          
O2E      O      0.108180000000     0.558650000000     0.000000000000     0          
C3E      C      0.168710000000     0.616600000000     0.000000000000     0          
H1E      H      0.176200000000     0.588500000000     0.000000000000     0          
C4E      C      0.199200000000     0.647000000000     0.000000000000     0          
H2E      H      0.227400000000     0.639600000000     0.000000000000     0          
H4ZC     H      0.206300000000     0.739600000000     0.093200000000     0          
C7E      C      0.234950000000     0.734950000000     0.962820000000     0          
C8E      C      0.218400000000     0.718400000000     0.922300000000     0          
H3E      H      0.198100000000     0.698100000000     0.928100000000     0          
H4OF     H      0.239600000000     0.706300000000     0.906800000000     0          
H4QF     H      0.293700000000     0.760400000000     0.093200000000     0          
H4E      H      0.206300000000     0.739600000000     0.906800000000     0          
O1E      O      0.037070000000     0.537070000000     0.037070000000     0          
O1W      O      0.037070000000     0.537070000000     0.962930000000     0          
O1I      O      0.037070000000     0.462930000000     0.037070000000     0          
Zr1B     Zr     0.924650000000     0.500000000000     0.000000000000     0          
Zr1G     Zr     0.000000000000     0.500000000000     0.924650000000     0          
Zr1I     Zr     0.000000000000     0.500000000000     0.075350000000     0          
Zr1HA    Zr     0.000000000000     0.575350000000     0.000000000000     0          
Zr1KA    Zr     0.000000000000     0.424650000000     0.000000000000     0          
Zr1ZA    Zr     0.575350000000     0.000000000000     0.000000000000     0          
Zr1PB    Zr     0.424650000000     0.000000000000     0.000000000000     0          
O1A      O      0.537070000000     0.037070000000     0.962930000000     0          
O1C      O      0.462930000000     0.962930000000     0.962930000000     0          
O1K      O      0.462930000000     0.962930000000     0.037070000000     0          
O1L      O      0.537070000000     0.037070000000     0.037070000000     0          
O1N      O      0.537070000000     0.962930000000     0.962930000000     0          
O1Q      O      0.462930000000     0.037070000000     0.962930000000     0          
O1R      O      0.462930000000     0.037070000000     0.037070000000     0          
O1S      O      0.537070000000     0.962930000000     0.037070000000     0          
O2S      O      0.558650000000     0.891820000000     0.000000000000     0          
O2BA     O      0.108180000000     0.500000000000     0.941350000000     0          
O2DA     O      0.108180000000     0.500000000000     0.058650000000     0          
O2FB     O      0.500000000000     0.108180000000     0.941350000000     0          
O2IB     O      0.500000000000     0.891820000000     0.058650000000     0          
O2KB     O      0.500000000000     0.891820000000     0.941350000000     0          
O2LB     O      0.500000000000     0.108180000000     0.058650000000     0          
O2A      O      0.891820000000     0.558650000000     0.000000000000     0          
C1A      C      0.905330000000     0.594670000000     0.000000000000     0          
C2A      C      0.872400000000     0.627600000000     0.000000000000     0          
C3A      C      0.831290000000     0.616600000000     0.000000000000     0          
H1A      H      0.823800000000     0.588500000000     0.000000000000     0          
C4A      C      0.800800000000     0.647000000000     0.000000000000     0          
H2A      H      0.772600000000     0.639600000000     0.000000000000     0          
C5A      C      0.812400000000     0.687600000000     0.000000000000     0          
C6A      C      0.779670000000     0.720330000000     0.000000000000     0          
C7A      C      0.765050000000     0.734950000000     0.037180000000     0          
C8A      C      0.781600000000     0.718400000000     0.077700000000     0          
H3A      H      0.801900000000     0.698100000000     0.071900000000     0          
H4A      H      0.793700000000     0.739600000000     0.093200000000     0          
O2WB     O      0.608180000000     0.941350000000     0.000000000000     0          
C1H      C      0.594670000000     0.905330000000     0.000000000000     0          
C2H      C      0.627600000000     0.872400000000     0.000000000000     0          
C3WB     C      0.668710000000     0.883400000000     0.000000000000     0          
H1WB     H      0.676200000000     0.911500000000     0.000000000000     0          
C4WB     C      0.699200000000     0.853000000000     0.000000000000     0          
H2WB     H      0.727400000000     0.860400000000     0.000000000000     0          
C5H      C      0.687600000000     0.812400000000     0.000000000000     0          
C6H      C      0.720330000000     0.779670000000     0.000000000000     0          
C7WB     C      0.734950000000     0.765050000000     0.037180000000     0          
C8WB     C      0.718400000000     0.781600000000     0.077700000000     0          
H3WB     H      0.698100000000     0.801900000000     0.071900000000     0          
H4WB     H      0.706300000000     0.760400000000     0.093200000000     0          
O2YB     O      0.941350000000     0.608180000000     0.000000000000     0          
C3YB     C      0.883400000000     0.668710000000     0.000000000000     0          
H1YB     H      0.911500000000     0.676200000000     0.000000000000     0          
C4YB     C      0.853000000000     0.699200000000     0.000000000000     0          
H2YB     H      0.860400000000     0.727400000000     0.000000000000     0          
C7YB     C      0.765050000000     0.734950000000     0.962820000000     0          
C8YB     C      0.781600000000     0.718400000000     0.922300000000     0          
H3YB     H      0.801900000000     0.698100000000     0.928100000000     0          
H4YB     H      0.760400000000     0.706300000000     0.906800000000     0          
H4UC     H      0.793700000000     0.739600000000     0.906800000000     0          
C3H      C      0.616600000000     0.831290000000     0.000000000000     0          
H1H      H      0.588500000000     0.823800000000     0.000000000000     0          
C4H      C      0.647000000000     0.800800000000     0.000000000000     0          
H2H      H      0.639600000000     0.772600000000     0.000000000000     0          
H4WC     H      0.739600000000     0.793700000000     0.093200000000     0          
C7H      C      0.734950000000     0.765050000000     0.962820000000     0          
C8H      C      0.718400000000     0.781600000000     0.922300000000     0          
H3H      H      0.698100000000     0.801900000000     0.928100000000     0          
H4MF     H      0.706300000000     0.760400000000     0.906800000000     0          
H4TF     H      0.760400000000     0.706300000000     0.093200000000     0          
H4H      H      0.739600000000     0.793700000000     0.906800000000     0          
Zr1G     Zr     0.500000000000     0.000000000000     0.924650000000     0          
Zr1I     Zr     0.500000000000     0.000000000000     0.075350000000     0          
O1A      O      0.962930000000     0.537070000000     0.962930000000     0          
O1L      O      0.962930000000     0.537070000000     0.037070000000     0          
O1Q      O      0.962930000000     0.462930000000     0.962930000000     0          
O1R      O      0.962930000000     0.462930000000     0.037070000000     0          
O2FB     O      0.891820000000     0.500000000000     0.941350000000     0          
O2LB     O      0.891820000000     0.500000000000     0.058650000000     0          
Zr1      Zr     0.000000000000     0.075350000000     0.500000000000     0          
O1       O      0.962930000000     0.037070000000     0.462930000000     0          
O2       O      0.000000000000     0.108180000000     0.441350000000     0          
C1       C      0.000000000000     0.094670000000     0.405330000000     0          
C2       C      0.000000000000     0.127600000000     0.372400000000     0          
C3       C      0.000000000000     0.168710000000     0.383400000000     0          
H1       H      0.000000000000     0.176200000000     0.411500000000     0          
C4       C      0.000000000000     0.199200000000     0.353000000000     0          
H2       H      0.000000000000     0.227400000000     0.360400000000     0          
C5       C      0.000000000000     0.187600000000     0.312400000000     0          
C6       C      0.000000000000     0.220330000000     0.279670000000     0          
C7       C      0.037180000000     0.234950000000     0.265050000000     0          
C8       C      0.077700000000     0.218400000000     0.281600000000     0          
H3       H      0.071900000000     0.198100000000     0.301900000000     0          
H4       H      0.093200000000     0.206300000000     0.260400000000     0          
O2VB     O      0.000000000000     0.391820000000     0.058650000000     0          
C1R      C      0.000000000000     0.405330000000     0.094670000000     0          
C2R      C      0.000000000000     0.372400000000     0.127600000000     0          
C3VB     C      0.000000000000     0.331290000000     0.116600000000     0          
H1VB     H      0.000000000000     0.323800000000     0.088500000000     0          
C4VB     C      0.000000000000     0.300800000000     0.147000000000     0          
H2VB     H      0.000000000000     0.272600000000     0.139600000000     0          
C5R      C      0.000000000000     0.312400000000     0.187600000000     0          
C6R      C      0.000000000000     0.279670000000     0.220330000000     0          
C7VB     C      0.037180000000     0.265050000000     0.234950000000     0          
C8VB     C      0.077700000000     0.281600000000     0.218400000000     0          
H3VB     H      0.071900000000     0.301900000000     0.198100000000     0          
H4VB     H      0.093200000000     0.293700000000     0.239600000000     0          
O2MC     O      0.000000000000     0.058650000000     0.391820000000     0          
C3MC     C      0.000000000000     0.116600000000     0.331290000000     0          
H1MC     H      0.000000000000     0.088500000000     0.323800000000     0          
C4MC     C      0.000000000000     0.147000000000     0.300800000000     0          
H2MC     H      0.000000000000     0.139600000000     0.272600000000     0          
C7MC     C      0.962820000000     0.234950000000     0.265050000000     0          
C8MC     C      0.922300000000     0.218400000000     0.281600000000     0          
H3MC     H      0.928100000000     0.198100000000     0.301900000000     0          
H4MC     H      0.906800000000     0.239600000000     0.293700000000     0          
H4TC     H      0.906800000000     0.206300000000     0.260400000000     0          
O2R      O      0.000000000000     0.441350000000     0.108180000000     0          
C3R      C      0.000000000000     0.383400000000     0.168710000000     0          
H1R      H      0.000000000000     0.411500000000     0.176200000000     0          
C4R      C      0.000000000000     0.353000000000     0.199200000000     0          
H2R      H      0.000000000000     0.360400000000     0.227400000000     0          
H4KD     H      0.093200000000     0.260400000000     0.206300000000     0          
C7R      C      0.962820000000     0.265050000000     0.234950000000     0          
C8R      C      0.922300000000     0.281600000000     0.218400000000     0          
H3R      H      0.928100000000     0.301900000000     0.198100000000     0          
H4LF     H      0.906800000000     0.293700000000     0.239600000000     0          
H4DG     H      0.093200000000     0.239600000000     0.293700000000     0          
H4R      H      0.906800000000     0.260400000000     0.206300000000     0          
O2A      O      0.000000000000     0.558650000000     0.108180000000     0          
C1A      C      0.000000000000     0.594670000000     0.094670000000     0          
C2A      C      0.000000000000     0.627600000000     0.127600000000     0          
C3A      C      0.000000000000     0.616600000000     0.168710000000     0          
H1A      H      0.000000000000     0.588500000000     0.176200000000     0          
C4A      C      0.000000000000     0.647000000000     0.199200000000     0          
H2A      H      0.000000000000     0.639600000000     0.227400000000     0          
C5A      C      0.000000000000     0.687600000000     0.187600000000     0          
C6A      C      0.000000000000     0.720330000000     0.220330000000     0          
C7A      C      0.037180000000     0.734950000000     0.234950000000     0          
C8A      C      0.077700000000     0.718400000000     0.218400000000     0          
H3A      H      0.071900000000     0.698100000000     0.198100000000     0          
H4A      H      0.093200000000     0.739600000000     0.206300000000     0          
O2WB     O      0.000000000000     0.941350000000     0.391820000000     0          
C1H      C      0.000000000000     0.905330000000     0.405330000000     0          
C2H      C      0.000000000000     0.872400000000     0.372400000000     0          
C3WB     C      0.000000000000     0.883400000000     0.331290000000     0          
H1WB     H      0.000000000000     0.911500000000     0.323800000000     0          
C4WB     C      0.000000000000     0.853000000000     0.300800000000     0          
H2WB     H      0.000000000000     0.860400000000     0.272600000000     0          
C5H      C      0.000000000000     0.812400000000     0.312400000000     0          
C6H      C      0.000000000000     0.779670000000     0.279670000000     0          
C7WB     C      0.037180000000     0.765050000000     0.265050000000     0          
C8WB     C      0.077700000000     0.781600000000     0.281600000000     0          
H3WB     H      0.071900000000     0.801900000000     0.301900000000     0          
H4WB     H      0.093200000000     0.760400000000     0.293700000000     0          
O2YB     O      0.000000000000     0.608180000000     0.058650000000     0          
C3YB     C      0.000000000000     0.668710000000     0.116600000000     0          
H1YB     H      0.000000000000     0.676200000000     0.088500000000     0          
C4YB     C      0.000000000000     0.699200000000     0.147000000000     0          
H2YB     H      0.000000000000     0.727400000000     0.139600000000     0          
C7YB     C      0.962820000000     0.734950000000     0.234950000000     0          
C8YB     C      0.922300000000     0.718400000000     0.218400000000     0          
H3YB     H      0.928100000000     0.698100000000     0.198100000000     0          
H4YB     H      0.906800000000     0.706300000000     0.239600000000     0          
H4UC     H      0.906800000000     0.739600000000     0.206300000000     0          
O2H      O      0.000000000000     0.891820000000     0.441350000000     0          
C3H      C      0.000000000000     0.831290000000     0.383400000000     0          
H1H      H      0.000000000000     0.823800000000     0.411500000000     0          
C4H      C      0.000000000000     0.800800000000     0.353000000000     0          
H2H      H      0.000000000000     0.772600000000     0.360400000000     0          
H4WC     H      0.093200000000     0.793700000000     0.260400000000     0          
C7H      C      0.962820000000     0.765050000000     0.265050000000     0          
C8H      C      0.922300000000     0.781600000000     0.281600000000     0          
H3H      H      0.928100000000     0.801900000000     0.301900000000     0          
H4MF     H      0.906800000000     0.760400000000     0.293700000000     0          
H4TF     H      0.093200000000     0.706300000000     0.239600000000     0          
H4H      H      0.906800000000     0.793700000000     0.260400000000     0          
O2C      O      0.000000000000     0.441350000000     0.891820000000     0          
C1C      C      0.000000000000     0.405330000000     0.905330000000     0          
C2C      C      0.000000000000     0.372400000000     0.872400000000     0          
C3C      C      0.000000000000     0.383400000000     0.831290000000     0          
H1C      H      0.000000000000     0.411500000000     0.823800000000     0          
C4C      C      0.000000000000     0.353000000000     0.800800000000     0          
H2C      H      0.000000000000     0.360400000000     0.772600000000     0          
C5C      C      0.000000000000     0.312400000000     0.812400000000     0          
C6C      C      0.000000000000     0.279670000000     0.779670000000     0          
C7C      C      0.037180000000     0.265050000000     0.765050000000     0          
C8C      C      0.077700000000     0.281600000000     0.781600000000     0          
H3C      H      0.071900000000     0.301900000000     0.801900000000     0          
H4C      H      0.093200000000     0.260400000000     0.793700000000     0          
O2UB     O      0.000000000000     0.058650000000     0.608180000000     0          
C1E      C      0.000000000000     0.094670000000     0.594670000000     0          
C2E      C      0.000000000000     0.127600000000     0.627600000000     0          
C3UB     C      0.000000000000     0.116600000000     0.668710000000     0          
H1UB     H      0.000000000000     0.088500000000     0.676200000000     0          
C4UB     C      0.000000000000     0.147000000000     0.699200000000     0          
H2UB     H      0.000000000000     0.139600000000     0.727400000000     0          
C5E      C      0.000000000000     0.187600000000     0.687600000000     0          
C6E      C      0.000000000000     0.220330000000     0.720330000000     0          
C7UB     C      0.037180000000     0.234950000000     0.734950000000     0          
C8UB     C      0.077700000000     0.218400000000     0.718400000000     0          
H3UB     H      0.071900000000     0.198100000000     0.698100000000     0          
H4UB     H      0.093200000000     0.239600000000     0.706300000000     0          
O2BC     O      0.000000000000     0.391820000000     0.941350000000     0          
C3BC     C      0.000000000000     0.331290000000     0.883400000000     0          
H1BC     H      0.000000000000     0.323800000000     0.911500000000     0          
C4BC     C      0.000000000000     0.300800000000     0.853000000000     0          
H2BC     H      0.000000000000     0.272600000000     0.860400000000     0          
C7BC     C      0.962820000000     0.265050000000     0.765050000000     0          
C8BC     C      0.922300000000     0.281600000000     0.781600000000     0          
H3BC     H      0.928100000000     0.301900000000     0.801900000000     0          
H4BC     H      0.906800000000     0.293700000000     0.760400000000     0          
H4SC     H      0.906800000000     0.260400000000     0.793700000000     0          
O2E      O      0.000000000000     0.108180000000     0.558650000000     0          
C3E      C      0.000000000000     0.168710000000     0.616600000000     0          
H1E      H      0.000000000000     0.176200000000     0.588500000000     0          
C4E      C      0.000000000000     0.199200000000     0.647000000000     0          
H2E      H      0.000000000000     0.227400000000     0.639600000000     0          
H4ZC     H      0.093200000000     0.206300000000     0.739600000000     0          
C7E      C      0.962820000000     0.234950000000     0.734950000000     0          
C8E      C      0.922300000000     0.218400000000     0.718400000000     0          
H3E      H      0.928100000000     0.198100000000     0.698100000000     0          
H4OF     H      0.906800000000     0.239600000000     0.706300000000     0          
H4QF     H      0.093200000000     0.293700000000     0.760400000000     0          
H4E      H      0.906800000000     0.206300000000     0.739600000000     0          
O1E      O      0.037070000000     0.037070000000     0.537070000000     0          
O1W      O      0.962930000000     0.037070000000     0.537070000000     0          
O1I      O      0.037070000000     0.037070000000     0.462930000000     0          
Zr1B     Zr     0.000000000000     0.924650000000     0.500000000000     0          
Zr1G     Zr     0.924650000000     0.000000000000     0.500000000000     0          
Zr1I     Zr     0.075350000000     0.000000000000     0.500000000000     0          
Zr1HA    Zr     0.000000000000     0.000000000000     0.575350000000     0          
Zr1KA    Zr     0.000000000000     0.000000000000     0.424650000000     0          
O2S      O      0.000000000000     0.558650000000     0.891820000000     0          
O2BA     O      0.941350000000     0.108180000000     0.500000000000     0          
O2DA     O      0.058650000000     0.108180000000     0.500000000000     0          
O2FB     O      0.941350000000     0.500000000000     0.108180000000     0          
O2IB     O      0.058650000000     0.500000000000     0.891820000000     0          
O2KB     O      0.941350000000     0.500000000000     0.891820000000     0          
O2LB     O      0.058650000000     0.500000000000     0.108180000000     0          
O1       O      0.962930000000     0.962930000000     0.462930000000     0          
O2       O      0.891820000000     0.000000000000     0.441350000000     0          
C1       C      0.905330000000     0.000000000000     0.405330000000     0          
C2       C      0.872400000000     0.000000000000     0.372400000000     0          
C3       C      0.831290000000     0.000000000000     0.383400000000     0          
H1       H      0.823800000000     0.000000000000     0.411500000000     0          
C4       C      0.800800000000     0.000000000000     0.353000000000     0          
H2       H      0.772600000000     0.000000000000     0.360400000000     0          
C5       C      0.812400000000     0.000000000000     0.312400000000     0          
C6       C      0.779670000000     0.000000000000     0.279670000000     0          
C7       C      0.765050000000     0.037180000000     0.265050000000     0          
C8       C      0.781600000000     0.077700000000     0.281600000000     0          
H3       H      0.801900000000     0.071900000000     0.301900000000     0          
H4       H      0.793700000000     0.093200000000     0.260400000000     0          
O2VB     O      0.608180000000     0.000000000000     0.058650000000     0          
C1R      C      0.594670000000     0.000000000000     0.094670000000     0          
C2R      C      0.627600000000     0.000000000000     0.127600000000     0          
C3VB     C      0.668710000000     0.000000000000     0.116600000000     0          
H1VB     H      0.676200000000     0.000000000000     0.088500000000     0          
C4VB     C      0.699200000000     0.000000000000     0.147000000000     0          
H2VB     H      0.727400000000     0.000000000000     0.139600000000     0          
C5R      C      0.687600000000     0.000000000000     0.187600000000     0          
C6R      C      0.720330000000     0.000000000000     0.220330000000     0          
C7VB     C      0.734950000000     0.037180000000     0.234950000000     0          
C8VB     C      0.718400000000     0.077700000000     0.218400000000     0          
H3VB     H      0.698100000000     0.071900000000     0.198100000000     0          
H4VB     H      0.706300000000     0.093200000000     0.239600000000     0          
O2MC     O      0.941350000000     0.000000000000     0.391820000000     0          
C3MC     C      0.883400000000     0.000000000000     0.331290000000     0          
H1MC     H      0.911500000000     0.000000000000     0.323800000000     0          
C4MC     C      0.853000000000     0.000000000000     0.300800000000     0          
H2MC     H      0.860400000000     0.000000000000     0.272600000000     0          
C7MC     C      0.765050000000     0.962820000000     0.265050000000     0          
C8MC     C      0.781600000000     0.922300000000     0.281600000000     0          
H3MC     H      0.801900000000     0.928100000000     0.301900000000     0          
H4MC     H      0.760400000000     0.906800000000     0.293700000000     0          
H4TC     H      0.793700000000     0.906800000000     0.260400000000     0          
O2R      O      0.558650000000     0.000000000000     0.108180000000     0          
C3R      C      0.616600000000     0.000000000000     0.168710000000     0          
H1R      H      0.588500000000     0.000000000000     0.176200000000     0          
C4R      C      0.647000000000     0.000000000000     0.199200000000     0          
H2R      H      0.639600000000     0.000000000000     0.227400000000     0          
H4KD     H      0.739600000000     0.093200000000     0.206300000000     0          
C7R      C      0.734950000000     0.962820000000     0.234950000000     0          
C8R      C      0.718400000000     0.922300000000     0.218400000000     0          
H3R      H      0.698100000000     0.928100000000     0.198100000000     0          
H4LF     H      0.706300000000     0.906800000000     0.239600000000     0          
H4DG     H      0.760400000000     0.093200000000     0.293700000000     0          
H4R      H      0.739600000000     0.906800000000     0.206300000000     0          
O2A      O      0.441350000000     0.000000000000     0.108180000000     0          
C1A      C      0.405330000000     0.000000000000     0.094670000000     0          
C2A      C      0.372400000000     0.000000000000     0.127600000000     0          
C3A      C      0.383400000000     0.000000000000     0.168710000000     0          
H1A      H      0.411500000000     0.000000000000     0.176200000000     0          
C4A      C      0.353000000000     0.000000000000     0.199200000000     0          
H2A      H      0.360400000000     0.000000000000     0.227400000000     0          
C5A      C      0.312400000000     0.000000000000     0.187600000000     0          
C6A      C      0.279670000000     0.000000000000     0.220330000000     0          
C7A      C      0.265050000000     0.037180000000     0.234950000000     0          
C8A      C      0.281600000000     0.077700000000     0.218400000000     0          
H3A      H      0.301900000000     0.071900000000     0.198100000000     0          
H4A      H      0.260400000000     0.093200000000     0.206300000000     0          
O2WB     O      0.058650000000     0.000000000000     0.391820000000     0          
C1H      C      0.094670000000     0.000000000000     0.405330000000     0          
C2H      C      0.127600000000     0.000000000000     0.372400000000     0          
C3WB     C      0.116600000000     0.000000000000     0.331290000000     0          
H1WB     H      0.088500000000     0.000000000000     0.323800000000     0          
C4WB     C      0.147000000000     0.000000000000     0.300800000000     0          
H2WB     H      0.139600000000     0.000000000000     0.272600000000     0          
C5H      C      0.187600000000     0.000000000000     0.312400000000     0          
C6H      C      0.220330000000     0.000000000000     0.279670000000     0          
C7WB     C      0.234950000000     0.037180000000     0.265050000000     0          
C8WB     C      0.218400000000     0.077700000000     0.281600000000     0          
H3WB     H      0.198100000000     0.071900000000     0.301900000000     0          
H4WB     H      0.239600000000     0.093200000000     0.293700000000     0          
O2YB     O      0.391820000000     0.000000000000     0.058650000000     0          
C3YB     C      0.331290000000     0.000000000000     0.116600000000     0          
H1YB     H      0.323800000000     0.000000000000     0.088500000000     0          
C4YB     C      0.300800000000     0.000000000000     0.147000000000     0          
H2YB     H      0.272600000000     0.000000000000     0.139600000000     0          
C7YB     C      0.265050000000     0.962820000000     0.234950000000     0          
C8YB     C      0.281600000000     0.922300000000     0.218400000000     0          
H3YB     H      0.301900000000     0.928100000000     0.198100000000     0          
H4YB     H      0.293700000000     0.906800000000     0.239600000000     0          
H4UC     H      0.260400000000     0.906800000000     0.206300000000     0          
O2H      O      0.108180000000     0.000000000000     0.441350000000     0          
C3H      C      0.168710000000     0.000000000000     0.383400000000     0          
H1H      H      0.176200000000     0.000000000000     0.411500000000     0          
C4H      C      0.199200000000     0.000000000000     0.353000000000     0          
H2H      H      0.227400000000     0.000000000000     0.360400000000     0          
H4WC     H      0.206300000000     0.093200000000     0.260400000000     0          
C7H      C      0.234950000000     0.962820000000     0.265050000000     0          
C8H      C      0.218400000000     0.922300000000     0.281600000000     0          
H3H      H      0.198100000000     0.928100000000     0.301900000000     0          
H4MF     H      0.239600000000     0.906800000000     0.293700000000     0          
H4TF     H      0.293700000000     0.093200000000     0.239600000000     0          
H4H      H      0.206300000000     0.906800000000     0.260400000000     0          
O2C      O      0.558650000000     0.000000000000     0.891820000000     0          
C1C      C      0.594670000000     0.000000000000     0.905330000000     0          
C2C      C      0.627600000000     0.000000000000     0.872400000000     0          
C3C      C      0.616600000000     0.000000000000     0.831290000000     0          
H1C      H      0.588500000000     0.000000000000     0.823800000000     0          
C4C      C      0.647000000000     0.000000000000     0.800800000000     0          
H2C      H      0.639600000000     0.000000000000     0.772600000000     0          
C5C      C      0.687600000000     0.000000000000     0.812400000000     0          
C6C      C      0.720330000000     0.000000000000     0.779670000000     0          
C7C      C      0.734950000000     0.037180000000     0.765050000000     0          
C8C      C      0.718400000000     0.077700000000     0.781600000000     0          
H3C      H      0.698100000000     0.071900000000     0.801900000000     0          
H4C      H      0.739600000000     0.093200000000     0.793700000000     0          
O2UB     O      0.941350000000     0.000000000000     0.608180000000     0          
C1E      C      0.905330000000     0.000000000000     0.594670000000     0          
C2E      C      0.872400000000     0.000000000000     0.627600000000     0          
C3UB     C      0.883400000000     0.000000000000     0.668710000000     0          
H1UB     H      0.911500000000     0.000000000000     0.676200000000     0          
C4UB     C      0.853000000000     0.000000000000     0.699200000000     0          
H2UB     H      0.860400000000     0.000000000000     0.727400000000     0          
C5E      C      0.812400000000     0.000000000000     0.687600000000     0          
C6E      C      0.779670000000     0.000000000000     0.720330000000     0          
C7UB     C      0.765050000000     0.037180000000     0.734950000000     0          
C8UB     C      0.781600000000     0.077700000000     0.718400000000     0          
H3UB     H      0.801900000000     0.071900000000     0.698100000000     0          
H4UB     H      0.760400000000     0.093200000000     0.706300000000     0          
O2BC     O      0.608180000000     0.000000000000     0.941350000000     0          
C3BC     C      0.668710000000     0.000000000000     0.883400000000     0          
H1BC     H      0.676200000000     0.000000000000     0.911500000000     0          
C4BC     C      0.699200000000     0.000000000000     0.853000000000     0          
H2BC     H      0.727400000000     0.000000000000     0.860400000000     0          
C7BC     C      0.734950000000     0.962820000000     0.765050000000     0          
C8BC     C      0.718400000000     0.922300000000     0.781600000000     0          
H3BC     H      0.698100000000     0.928100000000     0.801900000000     0          
H4BC     H      0.706300000000     0.906800000000     0.760400000000     0          
H4SC     H      0.739600000000     0.906800000000     0.793700000000     0          
O2E      O      0.891820000000     0.000000000000     0.558650000000     0          
C3E      C      0.831290000000     0.000000000000     0.616600000000     0          
H1E      H      0.823800000000     0.000000000000     0.588500000000     0          
C4E      C      0.800800000000     0.000000000000     0.647000000000     0          
H2E      H      0.772600000000     0.000000000000     0.639600000000     0          
H4ZC     H      0.793700000000     0.093200000000     0.739600000000     0          
C7E      C      0.765050000000     0.962820000000     0.734950000000     0          
C8E      C      0.781600000000     0.922300000000     0.718400000000     0          
H3E      H      0.801900000000     0.928100000000     0.698100000000     0          
H4OF     H      0.760400000000     0.906800000000     0.706300000000     0          
H4QF     H      0.706300000000     0.093200000000     0.760400000000     0          
H4E      H      0.793700000000     0.906800000000     0.739600000000     0          
O1W      O      0.962930000000     0.962930000000     0.537070000000     0          
O2S      O      0.441350000000     0.000000000000     0.891820000000     0          
O2BA     O      0.891820000000     0.941350000000     0.500000000000     0          
O2DA     O      0.891820000000     0.058650000000     0.500000000000     0          
O2FB     O      0.500000000000     0.941350000000     0.108180000000     0          
O2IB     O      0.500000000000     0.058650000000     0.891820000000     0          
O2KB     O      0.500000000000     0.941350000000     0.891820000000     0          
O2LB     O      0.500000000000     0.058650000000     0.108180000000     0          
O1       O      0.037070000000     0.962930000000     0.462930000000     0          
C1C      C      0.000000000000     0.594670000000     0.905330000000     0          
C2C      C      0.000000000000     0.627600000000     0.872400000000     0          
C3C      C      0.000000000000     0.616600000000     0.831290000000     0          
H1C      H      0.000000000000     0.588500000000     0.823800000000     0          
C4C      C      0.000000000000     0.647000000000     0.800800000000     0          
H2C      H      0.000000000000     0.639600000000     0.772600000000     0          
C5C      C      0.000000000000     0.687600000000     0.812400000000     0          
C6C      C      0.000000000000     0.720330000000     0.779670000000     0          
C7C      C      0.962820000000     0.734950000000     0.765050000000     0          
C8C      C      0.922300000000     0.718400000000     0.781600000000     0          
H3C      H      0.928100000000     0.698100000000     0.801900000000     0          
H4C      H      0.906800000000     0.739600000000     0.793700000000     0          
O2UB     O      0.000000000000     0.941350000000     0.608180000000     0          
C1E      C      0.000000000000     0.905330000000     0.594670000000     0          
C2E      C      0.000000000000     0.872400000000     0.627600000000     0          
C3UB     C      0.000000000000     0.883400000000     0.668710000000     0          
H1UB     H      0.000000000000     0.911500000000     0.676200000000     0          
C4UB     C      0.000000000000     0.853000000000     0.699200000000     0          
H2UB     H      0.000000000000     0.860400000000     0.727400000000     0          
C5E      C      0.000000000000     0.812400000000     0.687600000000     0          
C6E      C      0.000000000000     0.779670000000     0.720330000000     0          
C7UB     C      0.962820000000     0.765050000000     0.734950000000     0          
C8UB     C      0.922300000000     0.781600000000     0.718400000000     0          
H3UB     H      0.928100000000     0.801900000000     0.698100000000     0          
H4UB     H      0.906800000000     0.760400000000     0.706300000000     0          
O2BC     O      0.000000000000     0.608180000000     0.941350000000     0          
C3BC     C      0.000000000000     0.668710000000     0.883400000000     0          
H1BC     H      0.000000000000     0.676200000000     0.911500000000     0          
C4BC     C      0.000000000000     0.699200000000     0.853000000000     0          
H2BC     H      0.000000000000     0.727400000000     0.860400000000     0          
C7BC     C      0.037180000000     0.734950000000     0.765050000000     0          
C8BC     C      0.077700000000     0.718400000000     0.781600000000     0          
H3BC     H      0.071900000000     0.698100000000     0.801900000000     0          
H4BC     H      0.093200000000     0.706300000000     0.760400000000     0          
H4SC     H      0.093200000000     0.739600000000     0.793700000000     0          
O2E      O      0.000000000000     0.891820000000     0.558650000000     0          
C3E      C      0.000000000000     0.831290000000     0.616600000000     0          
H1E      H      0.000000000000     0.823800000000     0.588500000000     0          
C4E      C      0.000000000000     0.800800000000     0.647000000000     0          
H2E      H      0.000000000000     0.772600000000     0.639600000000     0          
H4ZC     H      0.906800000000     0.793700000000     0.739600000000     0          
C7E      C      0.037180000000     0.765050000000     0.734950000000     0          
C8E      C      0.077700000000     0.781600000000     0.718400000000     0          
H3E      H      0.071900000000     0.801900000000     0.698100000000     0          
H4OF     H      0.093200000000     0.760400000000     0.706300000000     0          
H4QF     H      0.906800000000     0.706300000000     0.760400000000     0          
H4E      H      0.093200000000     0.793700000000     0.739600000000     0          
O1W      O      0.037070000000     0.962930000000     0.537070000000     0          
O2BA     O      0.058650000000     0.891820000000     0.500000000000     0          
O2DA     O      0.941350000000     0.891820000000     0.500000000000     0          
C1C      C      0.405330000000     0.000000000000     0.905330000000     0          
C2C      C      0.372400000000     0.000000000000     0.872400000000     0          
C3C      C      0.383400000000     0.000000000000     0.831290000000     0          
H1C      H      0.411500000000     0.000000000000     0.823800000000     0          
C4C      C      0.353000000000     0.000000000000     0.800800000000     0          
H2C      H      0.360400000000     0.000000000000     0.772600000000     0          
C5C      C      0.312400000000     0.000000000000     0.812400000000     0          
C6C      C      0.279670000000     0.000000000000     0.779670000000     0          
C7C      C      0.265050000000     0.962820000000     0.765050000000     0          
C8C      C      0.281600000000     0.922300000000     0.781600000000     0          
H3C      H      0.301900000000     0.928100000000     0.801900000000     0          
H4C      H      0.260400000000     0.906800000000     0.793700000000     0          
O2UB     O      0.058650000000     0.000000000000     0.608180000000     0          
C1E      C      0.094670000000     0.000000000000     0.594670000000     0          
C2E      C      0.127600000000     0.000000000000     0.627600000000     0          
C3UB     C      0.116600000000     0.000000000000     0.668710000000     0          
H1UB     H      0.088500000000     0.000000000000     0.676200000000     0          
C4UB     C      0.147000000000     0.000000000000     0.699200000000     0          
H2UB     H      0.139600000000     0.000000000000     0.727400000000     0          
C5E      C      0.187600000000     0.000000000000     0.687600000000     0          
C6E      C      0.220330000000     0.000000000000     0.720330000000     0          
C7UB     C      0.234950000000     0.962820000000     0.734950000000     0          
C8UB     C      0.218400000000     0.922300000000     0.718400000000     0          
H3UB     H      0.198100000000     0.928100000000     0.698100000000     0          
H4UB     H      0.239600000000     0.906800000000     0.706300000000     0          
O2BC     O      0.391820000000     0.000000000000     0.941350000000     0          
C3BC     C      0.331290000000     0.000000000000     0.883400000000     0          
H1BC     H      0.323800000000     0.000000000000     0.911500000000     0          
C4BC     C      0.300800000000     0.000000000000     0.853000000000     0          
H2BC     H      0.272600000000     0.000000000000     0.860400000000     0          
C7BC     C      0.265050000000     0.037180000000     0.765050000000     0          
C8BC     C      0.281600000000     0.077700000000     0.781600000000     0          
H3BC     H      0.301900000000     0.071900000000     0.801900000000     0          
H4BC     H      0.293700000000     0.093200000000     0.760400000000     0          
H4SC     H      0.260400000000     0.093200000000     0.793700000000     0          
O2E      O      0.108180000000     0.000000000000     0.558650000000     0          
C3E      C      0.168710000000     0.000000000000     0.616600000000     0          
H1E      H      0.176200000000     0.000000000000     0.588500000000     0          
C4E      C      0.199200000000     0.000000000000     0.647000000000     0          
H2E      H      0.227400000000     0.000000000000     0.639600000000     0          
H4ZC     H      0.206300000000     0.906800000000     0.739600000000     0          
C7E      C      0.234950000000     0.037180000000     0.734950000000     0          
C8E      C      0.218400000000     0.077700000000     0.718400000000     0          
H3E      H      0.198100000000     0.071900000000     0.698100000000     0          
H4OF     H      0.239600000000     0.093200000000     0.706300000000     0          
H4QF     H      0.293700000000     0.906800000000     0.760400000000     0          
H4E      H      0.206300000000     0.093200000000     0.739600000000     0          
O2BA     O      0.108180000000     0.058650000000     0.500000000000     0          
O2DA     O      0.108180000000     0.941350000000     0.500000000000     0          
C1       C      0.094670000000     0.905330000000     0.500000000000     0          
C2       C      0.127600000000     0.872400000000     0.500000000000     0          
C3       C      0.168710000000     0.883400000000     0.500000000000     0          
H1       H      0.176200000000     0.911500000000     0.500000000000     0          
C4       C      0.199200000000     0.853000000000     0.500000000000     0          
H2       H      0.227400000000     0.860400000000     0.500000000000     0          
C5       C      0.187600000000     0.812400000000     0.500000000000     0          
C6       C      0.220330000000     0.779670000000     0.500000000000     0          
C7       C      0.234950000000     0.765050000000     0.537180000000     0          
C8       C      0.218400000000     0.781600000000     0.577700000000     0          
H3       H      0.198100000000     0.801900000000     0.571900000000     0          
H4       H      0.206300000000     0.760400000000     0.593200000000     0          
O2VB     O      0.391820000000     0.558650000000     0.500000000000     0          
C1R      C      0.405330000000     0.594670000000     0.500000000000     0          
C2R      C      0.372400000000     0.627600000000     0.500000000000     0          
C3VB     C      0.331290000000     0.616600000000     0.500000000000     0          
H1VB     H      0.323800000000     0.588500000000     0.500000000000     0          
C4VB     C      0.300800000000     0.647000000000     0.500000000000     0          
H2VB     H      0.272600000000     0.639600000000     0.500000000000     0          
C5R      C      0.312400000000     0.687600000000     0.500000000000     0          
C6R      C      0.279670000000     0.720330000000     0.500000000000     0          
C7VB     C      0.265050000000     0.734950000000     0.537180000000     0          
C8VB     C      0.281600000000     0.718400000000     0.577700000000     0          
H3VB     H      0.301900000000     0.698100000000     0.571900000000     0          
H4VB     H      0.293700000000     0.739600000000     0.593200000000     0          
C3MC     C      0.116600000000     0.831290000000     0.500000000000     0          
H1MC     H      0.088500000000     0.823800000000     0.500000000000     0          
C4MC     C      0.147000000000     0.800800000000     0.500000000000     0          
H2MC     H      0.139600000000     0.772600000000     0.500000000000     0          
C7MC     C      0.234950000000     0.765050000000     0.462820000000     0          
C8MC     C      0.218400000000     0.781600000000     0.422300000000     0          
H3MC     H      0.198100000000     0.801900000000     0.428100000000     0          
H4MC     H      0.239600000000     0.793700000000     0.406800000000     0          
H4TC     H      0.206300000000     0.760400000000     0.406800000000     0          
O2R      O      0.441350000000     0.608180000000     0.500000000000     0          
C3R      C      0.383400000000     0.668710000000     0.500000000000     0          
H1R      H      0.411500000000     0.676200000000     0.500000000000     0          
C4R      C      0.353000000000     0.699200000000     0.500000000000     0          
H2R      H      0.360400000000     0.727400000000     0.500000000000     0          
H4KD     H      0.260400000000     0.706300000000     0.593200000000     0          
C7R      C      0.265050000000     0.734950000000     0.462820000000     0          
C8R      C      0.281600000000     0.718400000000     0.422300000000     0          
H3R      H      0.301900000000     0.698100000000     0.428100000000     0          
H4LF     H      0.293700000000     0.739600000000     0.406800000000     0          
H4DG     H      0.239600000000     0.793700000000     0.593200000000     0          
H4R      H      0.260400000000     0.706300000000     0.406800000000     0          
Zr1A     Zr     0.500000000000     0.575350000000     0.500000000000     0          
O2A      O      0.558650000000     0.608180000000     0.500000000000     0          
C1A      C      0.594670000000     0.594670000000     0.500000000000     0          
C2A      C      0.627600000000     0.627600000000     0.500000000000     0          
C3A      C      0.616600000000     0.668710000000     0.500000000000     0          
H1A      H      0.588500000000     0.676200000000     0.500000000000     0          
C4A      C      0.647000000000     0.699200000000     0.500000000000     0          
H2A      H      0.639600000000     0.727400000000     0.500000000000     0          
C5A      C      0.687600000000     0.687600000000     0.500000000000     0          
C6A      C      0.720330000000     0.720330000000     0.500000000000     0          
C7A      C      0.734950000000     0.734950000000     0.537180000000     0          
C8A      C      0.718400000000     0.718400000000     0.577700000000     0          
H3A      H      0.698100000000     0.698100000000     0.571900000000     0          
H4A      H      0.739600000000     0.706300000000     0.593200000000     0          
C1H      C      0.905330000000     0.905330000000     0.500000000000     0          
C2H      C      0.872400000000     0.872400000000     0.500000000000     0          
C3WB     C      0.883400000000     0.831290000000     0.500000000000     0          
H1WB     H      0.911500000000     0.823800000000     0.500000000000     0          
C4WB     C      0.853000000000     0.800800000000     0.500000000000     0          
H2WB     H      0.860400000000     0.772600000000     0.500000000000     0          
C5H      C      0.812400000000     0.812400000000     0.500000000000     0          
C6H      C      0.779670000000     0.779670000000     0.500000000000     0          
C7WB     C      0.765050000000     0.765050000000     0.537180000000     0          
C8WB     C      0.781600000000     0.781600000000     0.577700000000     0          
H3WB     H      0.801900000000     0.801900000000     0.571900000000     0          
H4WB     H      0.760400000000     0.793700000000     0.593200000000     0          
O2YB     O      0.608180000000     0.558650000000     0.500000000000     0          
C3YB     C      0.668710000000     0.616600000000     0.500000000000     0          
H1YB     H      0.676200000000     0.588500000000     0.500000000000     0          
C4YB     C      0.699200000000     0.647000000000     0.500000000000     0          
H2YB     H      0.727400000000     0.639600000000     0.500000000000     0          
C7YB     C      0.734950000000     0.734950000000     0.462820000000     0          
C8YB     C      0.718400000000     0.718400000000     0.422300000000     0          
H3YB     H      0.698100000000     0.698100000000     0.428100000000     0          
H4YB     H      0.706300000000     0.739600000000     0.406800000000     0          
H4UC     H      0.739600000000     0.706300000000     0.406800000000     0          
C3H      C      0.831290000000     0.883400000000     0.500000000000     0          
H1H      H      0.823800000000     0.911500000000     0.500000000000     0          
C4H      C      0.800800000000     0.853000000000     0.500000000000     0          
H2H      H      0.772600000000     0.860400000000     0.500000000000     0          
H4WC     H      0.793700000000     0.760400000000     0.593200000000     0          
C7H      C      0.765050000000     0.765050000000     0.462820000000     0          
C8H      C      0.781600000000     0.781600000000     0.422300000000     0          
H3H      H      0.801900000000     0.801900000000     0.428100000000     0          
H4MF     H      0.760400000000     0.793700000000     0.406800000000     0          
H4TF     H      0.706300000000     0.739600000000     0.593200000000     0          
H4H      H      0.793700000000     0.760400000000     0.406800000000     0          
Zr1C     Zr     0.500000000000     0.424650000000     0.500000000000     0          
O2C      O      0.441350000000     0.391820000000     0.500000000000     0          
C1C      C      0.405330000000     0.405330000000     0.500000000000     0          
C2C      C      0.372400000000     0.372400000000     0.500000000000     0          
C3C      C      0.383400000000     0.331290000000     0.500000000000     0          
H1C      H      0.411500000000     0.323800000000     0.500000000000     0          
C4C      C      0.353000000000     0.300800000000     0.500000000000     0          
H2C      H      0.360400000000     0.272600000000     0.500000000000     0          
C5C      C      0.312400000000     0.312400000000     0.500000000000     0          
C6C      C      0.279670000000     0.279670000000     0.500000000000     0          
C7C      C      0.265050000000     0.265050000000     0.537180000000     0          
C8C      C      0.281600000000     0.281600000000     0.577700000000     0          
H3C      H      0.301900000000     0.301900000000     0.571900000000     0          
H4C      H      0.260400000000     0.293700000000     0.593200000000     0          
C1E      C      0.094670000000     0.094670000000     0.500000000000     0          
C2E      C      0.127600000000     0.127600000000     0.500000000000     0          
C3UB     C      0.116600000000     0.168710000000     0.500000000000     0          
H1UB     H      0.088500000000     0.176200000000     0.500000000000     0          
C4UB     C      0.147000000000     0.199200000000     0.500000000000     0          
H2UB     H      0.139600000000     0.227400000000     0.500000000000     0          
C5E      C      0.187600000000     0.187600000000     0.500000000000     0          
C6E      C      0.220330000000     0.220330000000     0.500000000000     0          
C7UB     C      0.234950000000     0.234950000000     0.537180000000     0          
C8UB     C      0.218400000000     0.218400000000     0.577700000000     0          
H3UB     H      0.198100000000     0.198100000000     0.571900000000     0          
H4UB     H      0.239600000000     0.206300000000     0.593200000000     0          
O2BC     O      0.391820000000     0.441350000000     0.500000000000     0          
C3BC     C      0.331290000000     0.383400000000     0.500000000000     0          
H1BC     H      0.323800000000     0.411500000000     0.500000000000     0          
C4BC     C      0.300800000000     0.353000000000     0.500000000000     0          
H2BC     H      0.272600000000     0.360400000000     0.500000000000     0          
C7BC     C      0.265050000000     0.265050000000     0.462820000000     0          
C8BC     C      0.281600000000     0.281600000000     0.422300000000     0          
H3BC     H      0.301900000000     0.301900000000     0.428100000000     0          
H4BC     H      0.293700000000     0.260400000000     0.406800000000     0          
H4SC     H      0.260400000000     0.293700000000     0.406800000000     0          
C3E      C      0.168710000000     0.116600000000     0.500000000000     0          
H1E      H      0.176200000000     0.088500000000     0.500000000000     0          
C4E      C      0.199200000000     0.147000000000     0.500000000000     0          
H2E      H      0.227400000000     0.139600000000     0.500000000000     0          
H4ZC     H      0.206300000000     0.239600000000     0.593200000000     0          
C7E      C      0.234950000000     0.234950000000     0.462820000000     0          
C8E      C      0.218400000000     0.218400000000     0.422300000000     0          
H3E      H      0.198100000000     0.198100000000     0.428100000000     0          
H4OF     H      0.239600000000     0.206300000000     0.406800000000     0          
H4QF     H      0.293700000000     0.260400000000     0.593200000000     0          
H4E      H      0.206300000000     0.239600000000     0.406800000000     0          
Zr1ZA    Zr     0.575350000000     0.500000000000     0.500000000000     0          
Zr1PB    Zr     0.424650000000     0.500000000000     0.500000000000     0          
O1A      O      0.537070000000     0.537070000000     0.462930000000     0          
O1C      O      0.462930000000     0.462930000000     0.462930000000     0          
O1K      O      0.462930000000     0.462930000000     0.537070000000     0          
O1L      O      0.537070000000     0.537070000000     0.537070000000     0          
O1N      O      0.537070000000     0.462930000000     0.462930000000     0          
O1Q      O      0.462930000000     0.537070000000     0.462930000000     0          
O1R      O      0.462930000000     0.537070000000     0.537070000000     0          
O1S      O      0.537070000000     0.462930000000     0.537070000000     0          
O2S      O      0.558650000000     0.391820000000     0.500000000000     0          
O2FB     O      0.500000000000     0.608180000000     0.441350000000     0          
O2IB     O      0.500000000000     0.391820000000     0.558650000000     0          
O2KB     O      0.500000000000     0.391820000000     0.441350000000     0          
O2LB     O      0.500000000000     0.608180000000     0.558650000000     0          
C1A      C      0.905330000000     0.094670000000     0.500000000000     0          
C2A      C      0.872400000000     0.127600000000     0.500000000000     0          
C3A      C      0.831290000000     0.116600000000     0.500000000000     0          
H1A      H      0.823800000000     0.088500000000     0.500000000000     0          
C4A      C      0.800800000000     0.147000000000     0.500000000000     0          
H2A      H      0.772600000000     0.139600000000     0.500000000000     0          
C5A      C      0.812400000000     0.187600000000     0.500000000000     0          
C6A      C      0.779670000000     0.220330000000     0.500000000000     0          
C7A      C      0.765050000000     0.234950000000     0.537180000000     0          
C8A      C      0.781600000000     0.218400000000     0.577700000000     0          
H3A      H      0.801900000000     0.198100000000     0.571900000000     0          
H4A      H      0.793700000000     0.239600000000     0.593200000000     0          
O2WB     O      0.608180000000     0.441350000000     0.500000000000     0          
C1H      C      0.594670000000     0.405330000000     0.500000000000     0          
C2H      C      0.627600000000     0.372400000000     0.500000000000     0          
C3WB     C      0.668710000000     0.383400000000     0.500000000000     0          
H1WB     H      0.676200000000     0.411500000000     0.500000000000     0          
C4WB     C      0.699200000000     0.353000000000     0.500000000000     0          
H2WB     H      0.727400000000     0.360400000000     0.500000000000     0          
C5H      C      0.687600000000     0.312400000000     0.500000000000     0          
C6H      C      0.720330000000     0.279670000000     0.500000000000     0          
C7WB     C      0.734950000000     0.265050000000     0.537180000000     0          
C8WB     C      0.718400000000     0.281600000000     0.577700000000     0          
H3WB     H      0.698100000000     0.301900000000     0.571900000000     0          
H4WB     H      0.706300000000     0.260400000000     0.593200000000     0          
C3YB     C      0.883400000000     0.168710000000     0.500000000000     0          
H1YB     H      0.911500000000     0.176200000000     0.500000000000     0          
C4YB     C      0.853000000000     0.199200000000     0.500000000000     0          
H2YB     H      0.860400000000     0.227400000000     0.500000000000     0          
C7YB     C      0.765050000000     0.234950000000     0.462820000000     0          
C8YB     C      0.781600000000     0.218400000000     0.422300000000     0          
H3YB     H      0.801900000000     0.198100000000     0.428100000000     0          
H4YB     H      0.760400000000     0.206300000000     0.406800000000     0          
H4UC     H      0.793700000000     0.239600000000     0.406800000000     0          
C3H      C      0.616600000000     0.331290000000     0.500000000000     0          
H1H      H      0.588500000000     0.323800000000     0.500000000000     0          
C4H      C      0.647000000000     0.300800000000     0.500000000000     0          
H2H      H      0.639600000000     0.272600000000     0.500000000000     0          
H4WC     H      0.739600000000     0.293700000000     0.593200000000     0          
C7H      C      0.734950000000     0.265050000000     0.462820000000     0          
C8H      C      0.718400000000     0.281600000000     0.422300000000     0          
H3H      H      0.698100000000     0.301900000000     0.428100000000     0          
H4MF     H      0.706300000000     0.260400000000     0.406800000000     0          
H4TF     H      0.760400000000     0.206300000000     0.593200000000     0          
H4H      H      0.739600000000     0.293700000000     0.406800000000     0          
Zr1G     Zr     0.500000000000     0.500000000000     0.424650000000     0          
Zr1I     Zr     0.500000000000     0.500000000000     0.575350000000     0          
C1       C      0.905330000000     0.500000000000     0.905330000000     0          
C2       C      0.872400000000     0.500000000000     0.872400000000     0          
C3       C      0.831290000000     0.500000000000     0.883400000000     0          
H1       H      0.823800000000     0.500000000000     0.911500000000     0          
C4       C      0.800800000000     0.500000000000     0.853000000000     0          
H2       H      0.772600000000     0.500000000000     0.860400000000     0          
C5       C      0.812400000000     0.500000000000     0.812400000000     0          
C6       C      0.779670000000     0.500000000000     0.779670000000     0          
C7       C      0.765050000000     0.537180000000     0.765050000000     0          
C8       C      0.781600000000     0.577700000000     0.781600000000     0          
H3       H      0.801900000000     0.571900000000     0.801900000000     0          
H4       H      0.793700000000     0.593200000000     0.760400000000     0          
O2VB     O      0.608180000000     0.500000000000     0.558650000000     0          
C1R      C      0.594670000000     0.500000000000     0.594670000000     0          
C2R      C      0.627600000000     0.500000000000     0.627600000000     0          
C3VB     C      0.668710000000     0.500000000000     0.616600000000     0          
H1VB     H      0.676200000000     0.500000000000     0.588500000000     0          
C4VB     C      0.699200000000     0.500000000000     0.647000000000     0          
H2VB     H      0.727400000000     0.500000000000     0.639600000000     0          
C5R      C      0.687600000000     0.500000000000     0.687600000000     0          
C6R      C      0.720330000000     0.500000000000     0.720330000000     0          
C7VB     C      0.734950000000     0.537180000000     0.734950000000     0          
C8VB     C      0.718400000000     0.577700000000     0.718400000000     0          
H3VB     H      0.698100000000     0.571900000000     0.698100000000     0          
H4VB     H      0.706300000000     0.593200000000     0.739600000000     0          
C3MC     C      0.883400000000     0.500000000000     0.831290000000     0          
H1MC     H      0.911500000000     0.500000000000     0.823800000000     0          
C4MC     C      0.853000000000     0.500000000000     0.800800000000     0          
H2MC     H      0.860400000000     0.500000000000     0.772600000000     0          
C7MC     C      0.765050000000     0.462820000000     0.765050000000     0          
C8MC     C      0.781600000000     0.422300000000     0.781600000000     0          
H3MC     H      0.801900000000     0.428100000000     0.801900000000     0          
H4MC     H      0.760400000000     0.406800000000     0.793700000000     0          
H4TC     H      0.793700000000     0.406800000000     0.760400000000     0          
O2R      O      0.558650000000     0.500000000000     0.608180000000     0          
C3R      C      0.616600000000     0.500000000000     0.668710000000     0          
H1R      H      0.588500000000     0.500000000000     0.676200000000     0          
C4R      C      0.647000000000     0.500000000000     0.699200000000     0          
H2R      H      0.639600000000     0.500000000000     0.727400000000     0          
H4KD     H      0.739600000000     0.593200000000     0.706300000000     0          
C7R      C      0.734950000000     0.462820000000     0.734950000000     0          
C8R      C      0.718400000000     0.422300000000     0.718400000000     0          
H3R      H      0.698100000000     0.428100000000     0.698100000000     0          
H4LF     H      0.706300000000     0.406800000000     0.739600000000     0          
H4DG     H      0.760400000000     0.593200000000     0.793700000000     0          
H4R      H      0.739600000000     0.406800000000     0.706300000000     0          
O2A      O      0.441350000000     0.500000000000     0.608180000000     0          
C1A      C      0.405330000000     0.500000000000     0.594670000000     0          
C2A      C      0.372400000000     0.500000000000     0.627600000000     0          
C3A      C      0.383400000000     0.500000000000     0.668710000000     0          
H1A      H      0.411500000000     0.500000000000     0.676200000000     0          
C4A      C      0.353000000000     0.500000000000     0.699200000000     0          
H2A      H      0.360400000000     0.500000000000     0.727400000000     0          
C5A      C      0.312400000000     0.500000000000     0.687600000000     0          
C6A      C      0.279670000000     0.500000000000     0.720330000000     0          
C7A      C      0.265050000000     0.537180000000     0.734950000000     0          
C8A      C      0.281600000000     0.577700000000     0.718400000000     0          
H3A      H      0.301900000000     0.571900000000     0.698100000000     0          
H4A      H      0.260400000000     0.593200000000     0.706300000000     0          
C1H      C      0.094670000000     0.500000000000     0.905330000000     0          
C2H      C      0.127600000000     0.500000000000     0.872400000000     0          
C3WB     C      0.116600000000     0.500000000000     0.831290000000     0          
H1WB     H      0.088500000000     0.500000000000     0.823800000000     0          
C4WB     C      0.147000000000     0.500000000000     0.800800000000     0          
H2WB     H      0.139600000000     0.500000000000     0.772600000000     0          
C5H      C      0.187600000000     0.500000000000     0.812400000000     0          
C6H      C      0.220330000000     0.500000000000     0.779670000000     0          
C7WB     C      0.234950000000     0.537180000000     0.765050000000     0          
C8WB     C      0.218400000000     0.577700000000     0.781600000000     0          
H3WB     H      0.198100000000     0.571900000000     0.801900000000     0          
H4WB     H      0.239600000000     0.593200000000     0.793700000000     0          
O2YB     O      0.391820000000     0.500000000000     0.558650000000     0          
C3YB     C      0.331290000000     0.500000000000     0.616600000000     0          
H1YB     H      0.323800000000     0.500000000000     0.588500000000     0          
C4YB     C      0.300800000000     0.500000000000     0.647000000000     0          
H2YB     H      0.272600000000     0.500000000000     0.639600000000     0          
C7YB     C      0.265050000000     0.462820000000     0.734950000000     0          
C8YB     C      0.281600000000     0.422300000000     0.718400000000     0          
H3YB     H      0.301900000000     0.428100000000     0.698100000000     0          
H4YB     H      0.293700000000     0.406800000000     0.739600000000     0          
H4UC     H      0.260400000000     0.406800000000     0.706300000000     0          
C3H      C      0.168710000000     0.500000000000     0.883400000000     0          
H1H      H      0.176200000000     0.500000000000     0.911500000000     0          
C4H      C      0.199200000000     0.500000000000     0.853000000000     0          
H2H      H      0.227400000000     0.500000000000     0.860400000000     0          
H4WC     H      0.206300000000     0.593200000000     0.760400000000     0          
C7H      C      0.234950000000     0.462820000000     0.765050000000     0          
C8H      C      0.218400000000     0.422300000000     0.781600000000     0          
H3H      H      0.198100000000     0.428100000000     0.801900000000     0          
H4MF     H      0.239600000000     0.406800000000     0.793700000000     0          
H4TF     H      0.293700000000     0.593200000000     0.739600000000     0          
H4H      H      0.206300000000     0.406800000000     0.760400000000     0          
O2C      O      0.558650000000     0.500000000000     0.391820000000     0          
C1C      C      0.594670000000     0.500000000000     0.405330000000     0          
C2C      C      0.627600000000     0.500000000000     0.372400000000     0          
C3C      C      0.616600000000     0.500000000000     0.331290000000     0          
H1C      H      0.588500000000     0.500000000000     0.323800000000     0          
C4C      C      0.647000000000     0.500000000000     0.300800000000     0          
H2C      H      0.639600000000     0.500000000000     0.272600000000     0          
C5C      C      0.687600000000     0.500000000000     0.312400000000     0          
C6C      C      0.720330000000     0.500000000000     0.279670000000     0          
C7C      C      0.734950000000     0.537180000000     0.265050000000     0          
C8C      C      0.718400000000     0.577700000000     0.281600000000     0          
H3C      H      0.698100000000     0.571900000000     0.301900000000     0          
H4C      H      0.739600000000     0.593200000000     0.293700000000     0          
C1E      C      0.905330000000     0.500000000000     0.094670000000     0          
C2E      C      0.872400000000     0.500000000000     0.127600000000     0          
C3UB     C      0.883400000000     0.500000000000     0.168710000000     0          
H1UB     H      0.911500000000     0.500000000000     0.176200000000     0          
C4UB     C      0.853000000000     0.500000000000     0.199200000000     0          
H2UB     H      0.860400000000     0.500000000000     0.227400000000     0          
C5E      C      0.812400000000     0.500000000000     0.187600000000     0          
C6E      C      0.779670000000     0.500000000000     0.220330000000     0          
C7UB     C      0.765050000000     0.537180000000     0.234950000000     0          
C8UB     C      0.781600000000     0.577700000000     0.218400000000     0          
H3UB     H      0.801900000000     0.571900000000     0.198100000000     0          
H4UB     H      0.760400000000     0.593200000000     0.206300000000     0          
O2BC     O      0.608180000000     0.500000000000     0.441350000000     0          
C3BC     C      0.668710000000     0.500000000000     0.383400000000     0          
H1BC     H      0.676200000000     0.500000000000     0.411500000000     0          
C4BC     C      0.699200000000     0.500000000000     0.353000000000     0          
H2BC     H      0.727400000000     0.500000000000     0.360400000000     0          
C7BC     C      0.734950000000     0.462820000000     0.265050000000     0          
C8BC     C      0.718400000000     0.422300000000     0.281600000000     0          
H3BC     H      0.698100000000     0.428100000000     0.301900000000     0          
H4BC     H      0.706300000000     0.406800000000     0.260400000000     0          
H4SC     H      0.739600000000     0.406800000000     0.293700000000     0          
C3E      C      0.831290000000     0.500000000000     0.116600000000     0          
H1E      H      0.823800000000     0.500000000000     0.088500000000     0          
C4E      C      0.800800000000     0.500000000000     0.147000000000     0          
H2E      H      0.772600000000     0.500000000000     0.139600000000     0          
H4ZC     H      0.793700000000     0.593200000000     0.239600000000     0          
C7E      C      0.765050000000     0.462820000000     0.234950000000     0          
C8E      C      0.781600000000     0.422300000000     0.218400000000     0          
H3E      H      0.801900000000     0.428100000000     0.198100000000     0          
H4OF     H      0.760400000000     0.406800000000     0.206300000000     0          
H4QF     H      0.706300000000     0.593200000000     0.260400000000     0          
H4E      H      0.793700000000     0.406800000000     0.239600000000     0          
O2S      O      0.441350000000     0.500000000000     0.391820000000     0          
O2FB     O      0.500000000000     0.441350000000     0.608180000000     0          
O2IB     O      0.500000000000     0.558650000000     0.391820000000     0          
O2KB     O      0.500000000000     0.441350000000     0.391820000000     0          
O2LB     O      0.500000000000     0.558650000000     0.608180000000     0          
C1C      C      0.405330000000     0.500000000000     0.405330000000     0          
C2C      C      0.372400000000     0.500000000000     0.372400000000     0          
C3C      C      0.383400000000     0.500000000000     0.331290000000     0          
H1C      H      0.411500000000     0.500000000000     0.323800000000     0          
C4C      C      0.353000000000     0.500000000000     0.300800000000     0          
H2C      H      0.360400000000     0.500000000000     0.272600000000     0          
C5C      C      0.312400000000     0.500000000000     0.312400000000     0          
C6C      C      0.279670000000     0.500000000000     0.279670000000     0          
C7C      C      0.265050000000     0.462820000000     0.265050000000     0          
C8C      C      0.281600000000     0.422300000000     0.281600000000     0          
H3C      H      0.301900000000     0.428100000000     0.301900000000     0          
H4C      H      0.260400000000     0.406800000000     0.293700000000     0          
C1E      C      0.094670000000     0.500000000000     0.094670000000     0          
C2E      C      0.127600000000     0.500000000000     0.127600000000     0          
C3UB     C      0.116600000000     0.500000000000     0.168710000000     0          
H1UB     H      0.088500000000     0.500000000000     0.176200000000     0          
C4UB     C      0.147000000000     0.500000000000     0.199200000000     0          
H2UB     H      0.139600000000     0.500000000000     0.227400000000     0          
C5E      C      0.187600000000     0.500000000000     0.187600000000     0          
C6E      C      0.220330000000     0.500000000000     0.220330000000     0          
C7UB     C      0.234950000000     0.462820000000     0.234950000000     0          
C8UB     C      0.218400000000     0.422300000000     0.218400000000     0          
H3UB     H      0.198100000000     0.428100000000     0.198100000000     0          
H4UB     H      0.239600000000     0.406800000000     0.206300000000     0          
O2BC     O      0.391820000000     0.500000000000     0.441350000000     0          
C3BC     C      0.331290000000     0.500000000000     0.383400000000     0          
H1BC     H      0.323800000000     0.500000000000     0.411500000000     0          
C4BC     C      0.300800000000     0.500000000000     0.353000000000     0          
H2BC     H      0.272600000000     0.500000000000     0.360400000000     0          
C7BC     C      0.265050000000     0.537180000000     0.265050000000     0          
C8BC     C      0.281600000000     0.577700000000     0.281600000000     0          
H3BC     H      0.301900000000     0.571900000000     0.301900000000     0          
H4BC     H      0.293700000000     0.593200000000     0.260400000000     0          
H4SC     H      0.260400000000     0.593200000000     0.293700000000     0          
C3E      C      0.168710000000     0.500000000000     0.116600000000     0          
H1E      H      0.176200000000     0.500000000000     0.088500000000     0          
C4E      C      0.199200000000     0.500000000000     0.147000000000     0          
H2E      H      0.227400000000     0.500000000000     0.139600000000     0          
H4ZC     H      0.206300000000     0.406800000000     0.239600000000     0          
C7E      C      0.234950000000     0.537180000000     0.234950000000     0          
C8E      C      0.218400000000     0.577700000000     0.218400000000     0          
H3E      H      0.198100000000     0.571900000000     0.198100000000     0          
H4OF     H      0.239600000000     0.593200000000     0.206300000000     0          
H4QF     H      0.293700000000     0.406800000000     0.260400000000     0          
H4E      H      0.206300000000     0.593200000000     0.239600000000     0          
C1       C      0.500000000000     0.094670000000     0.905330000000     0          
C2       C      0.500000000000     0.127600000000     0.872400000000     0          
C3       C      0.500000000000     0.168710000000     0.883400000000     0          
H1       H      0.500000000000     0.176200000000     0.911500000000     0          
C4       C      0.500000000000     0.199200000000     0.853000000000     0          
H2       H      0.500000000000     0.227400000000     0.860400000000     0          
C5       C      0.500000000000     0.187600000000     0.812400000000     0          
C6       C      0.500000000000     0.220330000000     0.779670000000     0          
C7       C      0.537180000000     0.234950000000     0.765050000000     0          
C8       C      0.577700000000     0.218400000000     0.781600000000     0          
H3       H      0.571900000000     0.198100000000     0.801900000000     0          
H4       H      0.593200000000     0.206300000000     0.760400000000     0          
C1R      C      0.500000000000     0.405330000000     0.594670000000     0          
C2R      C      0.500000000000     0.372400000000     0.627600000000     0          
C3VB     C      0.500000000000     0.331290000000     0.616600000000     0          
H1VB     H      0.500000000000     0.323800000000     0.588500000000     0          
C4VB     C      0.500000000000     0.300800000000     0.647000000000     0          
H2VB     H      0.500000000000     0.272600000000     0.639600000000     0          
C5R      C      0.500000000000     0.312400000000     0.687600000000     0          
C6R      C      0.500000000000     0.279670000000     0.720330000000     0          
C7VB     C      0.537180000000     0.265050000000     0.734950000000     0          
C8VB     C      0.577700000000     0.281600000000     0.718400000000     0          
H3VB     H      0.571900000000     0.301900000000     0.698100000000     0          
H4VB     H      0.593200000000     0.293700000000     0.739600000000     0          
C3MC     C      0.500000000000     0.116600000000     0.831290000000     0          
H1MC     H      0.500000000000     0.088500000000     0.823800000000     0          
C4MC     C      0.500000000000     0.147000000000     0.800800000000     0          
H2MC     H      0.500000000000     0.139600000000     0.772600000000     0          
C7MC     C      0.462820000000     0.234950000000     0.765050000000     0          
C8MC     C      0.422300000000     0.218400000000     0.781600000000     0          
H3MC     H      0.428100000000     0.198100000000     0.801900000000     0          
H4MC     H      0.406800000000     0.239600000000     0.793700000000     0          
H4TC     H      0.406800000000     0.206300000000     0.760400000000     0          
C3R      C      0.500000000000     0.383400000000     0.668710000000     0          
H1R      H      0.500000000000     0.411500000000     0.676200000000     0          
C4R      C      0.500000000000     0.353000000000     0.699200000000     0          
H2R      H      0.500000000000     0.360400000000     0.727400000000     0          
H4KD     H      0.593200000000     0.260400000000     0.706300000000     0          
C7R      C      0.462820000000     0.265050000000     0.734950000000     0          
C8R      C      0.422300000000     0.281600000000     0.718400000000     0          
H3R      H      0.428100000000     0.301900000000     0.698100000000     0          
H4LF     H      0.406800000000     0.293700000000     0.739600000000     0          
H4DG     H      0.593200000000     0.239600000000     0.793700000000     0          
H4R      H      0.406800000000     0.260400000000     0.706300000000     0          
C1A      C      0.500000000000     0.594670000000     0.594670000000     0          
C2A      C      0.500000000000     0.627600000000     0.627600000000     0          
C3A      C      0.500000000000     0.616600000000     0.668710000000     0          
H1A      H      0.500000000000     0.588500000000     0.676200000000     0          
C4A      C      0.500000000000     0.647000000000     0.699200000000     0          
H2A      H      0.500000000000     0.639600000000     0.727400000000     0          
C5A      C      0.500000000000     0.687600000000     0.687600000000     0          
C6A      C      0.500000000000     0.720330000000     0.720330000000     0          
C7A      C      0.537180000000     0.734950000000     0.734950000000     0          
C8A      C      0.577700000000     0.718400000000     0.718400000000     0          
H3A      H      0.571900000000     0.698100000000     0.698100000000     0          
H4A      H      0.593200000000     0.739600000000     0.706300000000     0          
C1H      C      0.500000000000     0.905330000000     0.905330000000     0          
C2H      C      0.500000000000     0.872400000000     0.872400000000     0          
C3WB     C      0.500000000000     0.883400000000     0.831290000000     0          
H1WB     H      0.500000000000     0.911500000000     0.823800000000     0          
C4WB     C      0.500000000000     0.853000000000     0.800800000000     0          
H2WB     H      0.500000000000     0.860400000000     0.772600000000     0          
C5H      C      0.500000000000     0.812400000000     0.812400000000     0          
C6H      C      0.500000000000     0.779670000000     0.779670000000     0          
C7WB     C      0.537180000000     0.765050000000     0.765050000000     0          
C8WB     C      0.577700000000     0.781600000000     0.781600000000     0          
H3WB     H      0.571900000000     0.801900000000     0.801900000000     0          
H4WB     H      0.593200000000     0.760400000000     0.793700000000     0          
C3YB     C      0.500000000000     0.668710000000     0.616600000000     0          
H1YB     H      0.500000000000     0.676200000000     0.588500000000     0          
C4YB     C      0.500000000000     0.699200000000     0.647000000000     0          
H2YB     H      0.500000000000     0.727400000000     0.639600000000     0          
C7YB     C      0.462820000000     0.734950000000     0.734950000000     0          
C8YB     C      0.422300000000     0.718400000000     0.718400000000     0          
H3YB     H      0.428100000000     0.698100000000     0.698100000000     0          
H4YB     H      0.406800000000     0.706300000000     0.739600000000     0          
H4UC     H      0.406800000000     0.739600000000     0.706300000000     0          
C3H      C      0.500000000000     0.831290000000     0.883400000000     0          
H1H      H      0.500000000000     0.823800000000     0.911500000000     0          
C4H      C      0.500000000000     0.800800000000     0.853000000000     0          
H2H      H      0.500000000000     0.772600000000     0.860400000000     0          
H4WC     H      0.593200000000     0.793700000000     0.760400000000     0          
C7H      C      0.462820000000     0.765050000000     0.765050000000     0          
C8H      C      0.422300000000     0.781600000000     0.781600000000     0          
H3H      H      0.428100000000     0.801900000000     0.801900000000     0          
H4MF     H      0.406800000000     0.760400000000     0.793700000000     0          
H4TF     H      0.593200000000     0.706300000000     0.739600000000     0          
H4H      H      0.406800000000     0.793700000000     0.760400000000     0          
C1C      C      0.500000000000     0.405330000000     0.405330000000     0          
C2C      C      0.500000000000     0.372400000000     0.372400000000     0          
C3C      C      0.500000000000     0.383400000000     0.331290000000     0          
H1C      H      0.500000000000     0.411500000000     0.323800000000     0          
C4C      C      0.500000000000     0.353000000000     0.300800000000     0          
H2C      H      0.500000000000     0.360400000000     0.272600000000     0          
C5C      C      0.500000000000     0.312400000000     0.312400000000     0          
C6C      C      0.500000000000     0.279670000000     0.279670000000     0          
C7C      C      0.537180000000     0.265050000000     0.265050000000     0          
C8C      C      0.577700000000     0.281600000000     0.281600000000     0          
H3C      H      0.571900000000     0.301900000000     0.301900000000     0          
H4C      H      0.593200000000     0.260400000000     0.293700000000     0          
C1E      C      0.500000000000     0.094670000000     0.094670000000     0          
C2E      C      0.500000000000     0.127600000000     0.127600000000     0          
C3UB     C      0.500000000000     0.116600000000     0.168710000000     0          
H1UB     H      0.500000000000     0.088500000000     0.176200000000     0          
C4UB     C      0.500000000000     0.147000000000     0.199200000000     0          
H2UB     H      0.500000000000     0.139600000000     0.227400000000     0          
C5E      C      0.500000000000     0.187600000000     0.187600000000     0          
C6E      C      0.500000000000     0.220330000000     0.220330000000     0          
C7UB     C      0.537180000000     0.234950000000     0.234950000000     0          
C8UB     C      0.577700000000     0.218400000000     0.218400000000     0          
H3UB     H      0.571900000000     0.198100000000     0.198100000000     0          
H4UB     H      0.593200000000     0.239600000000     0.206300000000     0          
C3BC     C      0.500000000000     0.331290000000     0.383400000000     0          
H1BC     H      0.500000000000     0.323800000000     0.411500000000     0          
C4BC     C      0.500000000000     0.300800000000     0.353000000000     0          
H2BC     H      0.500000000000     0.272600000000     0.360400000000     0          
C7BC     C      0.462820000000     0.265050000000     0.265050000000     0          
C8BC     C      0.422300000000     0.281600000000     0.281600000000     0          
H3BC     H      0.428100000000     0.301900000000     0.301900000000     0          
H4BC     H      0.406800000000     0.293700000000     0.260400000000     0          
H4SC     H      0.406800000000     0.260400000000     0.293700000000     0          
C3E      C      0.500000000000     0.168710000000     0.116600000000     0          
H1E      H      0.500000000000     0.176200000000     0.088500000000     0          
C4E      C      0.500000000000     0.199200000000     0.147000000000     0          
H2E      H      0.500000000000     0.227400000000     0.139600000000     0          
H4ZC     H      0.593200000000     0.206300000000     0.239600000000     0          
C7E      C      0.462820000000     0.234950000000     0.234950000000     0          
C8E      C      0.422300000000     0.218400000000     0.218400000000     0          
H3E      H      0.428100000000     0.198100000000     0.198100000000     0          
H4OF     H      0.406800000000     0.239600000000     0.206300000000     0          
H4QF     H      0.593200000000     0.293700000000     0.260400000000     0          
H4E      H      0.406800000000     0.206300000000     0.239600000000     0          
C1C      C      0.500000000000     0.594670000000     0.405330000000     0          
C2C      C      0.500000000000     0.627600000000     0.372400000000     0          
C3C      C      0.500000000000     0.616600000000     0.331290000000     0          
H1C      H      0.500000000000     0.588500000000     0.323800000000     0          
C4C      C      0.500000000000     0.647000000000     0.300800000000     0          
H2C      H      0.500000000000     0.639600000000     0.272600000000     0          
C5C      C      0.500000000000     0.687600000000     0.312400000000     0          
C6C      C      0.500000000000     0.720330000000     0.279670000000     0          
C7C      C      0.462820000000     0.734950000000     0.265050000000     0          
C8C      C      0.422300000000     0.718400000000     0.281600000000     0          
H3C      H      0.428100000000     0.698100000000     0.301900000000     0          
H4C      H      0.406800000000     0.739600000000     0.293700000000     0          
C1E      C      0.500000000000     0.905330000000     0.094670000000     0          
C2E      C      0.500000000000     0.872400000000     0.127600000000     0          
C3UB     C      0.500000000000     0.883400000000     0.168710000000     0          
H1UB     H      0.500000000000     0.911500000000     0.176200000000     0          
C4UB     C      0.500000000000     0.853000000000     0.199200000000     0          
H2UB     H      0.500000000000     0.860400000000     0.227400000000     0          
C5E      C      0.500000000000     0.812400000000     0.187600000000     0          
C6E      C      0.500000000000     0.779670000000     0.220330000000     0          
C7UB     C      0.462820000000     0.765050000000     0.234950000000     0          
C8UB     C      0.422300000000     0.781600000000     0.218400000000     0          
H3UB     H      0.428100000000     0.801900000000     0.198100000000     0          
H4UB     H      0.406800000000     0.760400000000     0.206300000000     0          
C3BC     C      0.500000000000     0.668710000000     0.383400000000     0          
H1BC     H      0.500000000000     0.676200000000     0.411500000000     0          
C4BC     C      0.500000000000     0.699200000000     0.353000000000     0          
H2BC     H      0.500000000000     0.727400000000     0.360400000000     0          
C7BC     C      0.537180000000     0.734950000000     0.265050000000     0          
C8BC     C      0.577700000000     0.718400000000     0.281600000000     0          
H3BC     H      0.571900000000     0.698100000000     0.301900000000     0          
H4BC     H      0.593200000000     0.706300000000     0.260400000000     0          
H4SC     H      0.593200000000     0.739600000000     0.293700000000     0          
C3E      C      0.500000000000     0.831290000000     0.116600000000     0          
H1E      H      0.500000000000     0.823800000000     0.088500000000     0          
C4E      C      0.500000000000     0.800800000000     0.147000000000     0          
H2E      H      0.500000000000     0.772600000000     0.139600000000     0          
H4ZC     H      0.406800000000     0.793700000000     0.239600000000     0          
C7E      C      0.537180000000     0.765050000000     0.234950000000     0          
C8E      C      0.577700000000     0.781600000000     0.218400000000     0          
H3E      H      0.571900000000     0.801900000000     0.198100000000     0          
H4OF     H      0.593200000000     0.760400000000     0.206300000000     0          
H4QF     H      0.406800000000     0.706300000000     0.260400000000     0          
H4E      H      0.593200000000     0.793700000000     0.239600000000     0          


