data_YEYDAJ

_audit_creation_method RASPA-1.0
_audit_creation_date 2020-11-2
_audit_author_name 'Rocio Bueno-Perez'

_cell_length_a    32.6919
_cell_length_b    32.6919
_cell_length_c    32.6919
_cell_angle_alpha 90
_cell_angle_beta  90
_cell_angle_gamma 90
_cell_volume      34939.8

_symmetry_cell_setting          triclinic
_symmetry_space_group_name_Hall 'P 1'
_symmetry_space_group_name_H-M  'P 1'
_symmetry_Int_Tables_number     1

_symmetry_equiv_pos_as_xyz 'x,y,z'

loop_
_atom_site_label
_atom_site_type_symbol
_atom_site_fract_x
_atom_site_fract_y
_atom_site_fract_z
_atom_site_charge
H41      H      0.696500000000     0.575300000000     0.206000000000     0          
N43      N      0.713040000000     0.613010000000     0.254670000000     0          
N44      N      0.683030000000     0.610370000000     0.277400000000     0          
N45      N      0.652880000000     0.607260000000     0.299860000000     0          
N48      N      0.713040000000     0.113010000000     0.754670000000     0          
N49      N      0.683030000000     0.110370000000     0.777400000000     0          
N50      N      0.652880000000     0.107260000000     0.799860000000     0          
H51      H      0.196500000000     0.575300000000     0.706000000000     0          
N53      N      0.213040000000     0.613010000000     0.754670000000     0          
N54      N      0.183030000000     0.610370000000     0.777400000000     0          
N55      N      0.152880000000     0.607260000000     0.799860000000     0          
H56      H      0.196500000000     0.075300000000     0.206000000000     0          
N58      N      0.213040000000     0.113010000000     0.254670000000     0          
N59      N      0.183030000000     0.110370000000     0.277400000000     0          
N60      N      0.152880000000     0.107260000000     0.299860000000     0          
H61      H      0.303500000000     0.424700000000     0.206000000000     0          
N63      N      0.286960000000     0.386990000000     0.254670000000     0          
N64      N      0.316970000000     0.389630000000     0.277400000000     0          
N65      N      0.347120000000     0.392740000000     0.299860000000     0          
H66      H      0.303500000000     0.924700000000     0.706000000000     0          
N68      N      0.286960000000     0.886990000000     0.754670000000     0          
N69      N      0.316970000000     0.889630000000     0.777400000000     0          
N70      N      0.347120000000     0.892740000000     0.799860000000     0          
H71      H      0.803500000000     0.424700000000     0.706000000000     0          
N73      N      0.786960000000     0.386990000000     0.754670000000     0          
N74      N      0.816970000000     0.389630000000     0.777400000000     0          
N75      N      0.847120000000     0.392740000000     0.799860000000     0          
H76      H      0.803500000000     0.924700000000     0.206000000000     0          
N78      N      0.786960000000     0.886990000000     0.254670000000     0          
N79      N      0.816970000000     0.889630000000     0.277400000000     0          
N80      N      0.847120000000     0.892740000000     0.299860000000     0          
N103     N      0.745330000000     0.713040000000     0.386990000000     0          
N104     N      0.722600000000     0.683030000000     0.389630000000     0          
N105     N      0.700140000000     0.652880000000     0.392740000000     0          
H107     H      0.796800000000     0.242100000000     0.911000000000     0          
N108     N      0.745330000000     0.213040000000     0.886990000000     0          
N109     N      0.722600000000     0.183030000000     0.889630000000     0          
N110     N      0.700140000000     0.152880000000     0.892740000000     0          
H112     H      0.296800000000     0.742100000000     0.911000000000     0          
N113     N      0.245330000000     0.713040000000     0.886990000000     0          
N114     N      0.222600000000     0.683030000000     0.889630000000     0          
N115     N      0.200140000000     0.652880000000     0.892740000000     0          
N118     N      0.245330000000     0.213040000000     0.386990000000     0          
N119     N      0.222600000000     0.183030000000     0.389630000000     0          
N120     N      0.200140000000     0.152880000000     0.392740000000     0          
H121     H      0.206000000000     0.696500000000     0.575300000000     0          
N123     N      0.254670000000     0.713040000000     0.613010000000     0          
N124     N      0.277400000000     0.683030000000     0.610370000000     0          
N125     N      0.299860000000     0.652880000000     0.607260000000     0          
H126     H      0.206000000000     0.196500000000     0.075300000000     0          
N128     N      0.254670000000     0.213040000000     0.113010000000     0          
N129     N      0.277400000000     0.183030000000     0.110370000000     0          
N130     N      0.299860000000     0.152880000000     0.107260000000     0          
H131     H      0.706000000000     0.696500000000     0.075300000000     0          
N133     N      0.754670000000     0.713040000000     0.113010000000     0          
N134     N      0.777400000000     0.683030000000     0.110370000000     0          
N135     N      0.799860000000     0.652880000000     0.107260000000     0          
H136     H      0.706000000000     0.196500000000     0.575300000000     0          
N138     N      0.754670000000     0.213040000000     0.613010000000     0          
N139     N      0.777400000000     0.183030000000     0.610370000000     0          
N140     N      0.799860000000     0.152880000000     0.607260000000     0          
H182     H      0.411000000000     0.796800000000     0.742100000000     0          
N183     N      0.386990000000     0.745330000000     0.713040000000     0          
N184     N      0.389630000000     0.722600000000     0.683030000000     0          
N185     N      0.392740000000     0.700140000000     0.652880000000     0          
H187     H      0.411000000000     0.296800000000     0.242100000000     0          
N188     N      0.386990000000     0.245330000000     0.213040000000     0          
N189     N      0.389630000000     0.222600000000     0.183030000000     0          
N190     N      0.392740000000     0.200140000000     0.152880000000     0          
N193     N      0.886990000000     0.745330000000     0.213040000000     0          
N194     N      0.889630000000     0.722600000000     0.183030000000     0          
N195     N      0.892740000000     0.700140000000     0.152880000000     0          
N198     N      0.886990000000     0.245330000000     0.713040000000     0          
N199     N      0.889630000000     0.222600000000     0.683030000000     0          
N200     N      0.892740000000     0.200140000000     0.652880000000     0          
N203     N      0.613010000000     0.254670000000     0.713040000000     0          
N204     N      0.610370000000     0.277400000000     0.683030000000     0          
N205     N      0.607260000000     0.299860000000     0.652880000000     0          
N208     N      0.613010000000     0.754670000000     0.213040000000     0          
N209     N      0.610370000000     0.777400000000     0.183030000000     0          
N210     N      0.607260000000     0.799860000000     0.152880000000     0          
H211     H      0.075300000000     0.206000000000     0.196500000000     0          
N213     N      0.113010000000     0.254670000000     0.213040000000     0          
N214     N      0.110370000000     0.277400000000     0.183030000000     0          
N215     N      0.107260000000     0.299860000000     0.152880000000     0          
H216     H      0.075300000000     0.706000000000     0.696500000000     0          
N218     N      0.113010000000     0.754670000000     0.713040000000     0          
N219     N      0.110370000000     0.777400000000     0.683030000000     0          
N220     N      0.107260000000     0.799860000000     0.652880000000     0          
H282     H      0.589000000000     0.742100000000     0.796800000000     0          
N283     N      0.613010000000     0.713040000000     0.745330000000     0          
N284     N      0.610370000000     0.683030000000     0.722600000000     0          
N285     N      0.607260000000     0.652880000000     0.700140000000     0          
H287     H      0.589000000000     0.242100000000     0.296800000000     0          
N288     N      0.613010000000     0.213040000000     0.245330000000     0          
N289     N      0.610370000000     0.183030000000     0.222600000000     0          
N290     N      0.607260000000     0.152880000000     0.200140000000     0          
H292     H      0.089000000000     0.742100000000     0.296800000000     0          
N293     N      0.113010000000     0.713040000000     0.245330000000     0          
N294     N      0.110370000000     0.683030000000     0.222600000000     0          
N295     N      0.107260000000     0.652880000000     0.200140000000     0          
N298     N      0.113010000000     0.213040000000     0.745330000000     0          
N299     N      0.110370000000     0.183030000000     0.722600000000     0          
N300     N      0.107260000000     0.152880000000     0.700140000000     0          
H301     H      0.424700000000     0.303500000000     0.794000000000     0          
N303     N      0.386990000000     0.286960000000     0.745330000000     0          
N304     N      0.389630000000     0.316970000000     0.722600000000     0          
N305     N      0.392740000000     0.347120000000     0.700140000000     0          
H306     H      0.424700000000     0.803500000000     0.294000000000     0          
N308     N      0.386990000000     0.786960000000     0.245330000000     0          
N309     N      0.389630000000     0.816970000000     0.222600000000     0          
N310     N      0.392740000000     0.847120000000     0.200140000000     0          
H311     H      0.924700000000     0.303500000000     0.294000000000     0          
N313     N      0.886990000000     0.286960000000     0.245330000000     0          
N314     N      0.889630000000     0.316970000000     0.222600000000     0          
N315     N      0.892740000000     0.347120000000     0.200140000000     0          
H316     H      0.924700000000     0.803500000000     0.794000000000     0          
N318     N      0.886990000000     0.786960000000     0.745330000000     0          
N319     N      0.889630000000     0.816970000000     0.722600000000     0          
N320     N      0.892740000000     0.847120000000     0.700140000000     0          
H321     H      0.303500000000     0.794000000000     0.424700000000     0          
N323     N      0.286960000000     0.745330000000     0.386990000000     0          
N324     N      0.316970000000     0.722600000000     0.389630000000     0          
N325     N      0.347120000000     0.700140000000     0.392740000000     0          
H326     H      0.303500000000     0.294000000000     0.924700000000     0          
N328     N      0.286960000000     0.245330000000     0.886990000000     0          
N329     N      0.316970000000     0.222600000000     0.889630000000     0          
N330     N      0.347120000000     0.200140000000     0.892740000000     0          
H331     H      0.803500000000     0.794000000000     0.924700000000     0          
N333     N      0.786960000000     0.745330000000     0.886990000000     0          
N334     N      0.816970000000     0.722600000000     0.889630000000     0          
N335     N      0.847120000000     0.700140000000     0.892740000000     0          
H336     H      0.803500000000     0.294000000000     0.424700000000     0          
N338     N      0.786960000000     0.245330000000     0.386990000000     0          
N339     N      0.816970000000     0.222600000000     0.389630000000     0          
N340     N      0.847120000000     0.200140000000     0.392740000000     0          
N343     N      0.713040000000     0.745330000000     0.613010000000     0          
N344     N      0.683030000000     0.722600000000     0.610370000000     0          
N345     N      0.652880000000     0.700140000000     0.607260000000     0          
H347     H      0.742100000000     0.296800000000     0.089000000000     0          
N348     N      0.713040000000     0.245330000000     0.113010000000     0          
N349     N      0.683030000000     0.222600000000     0.110370000000     0          
N350     N      0.652880000000     0.200140000000     0.107260000000     0          
H352     H      0.242100000000     0.796800000000     0.089000000000     0          
N353     N      0.213040000000     0.745330000000     0.113010000000     0          
N354     N      0.183030000000     0.722600000000     0.110370000000     0          
N355     N      0.152880000000     0.700140000000     0.107260000000     0          
N358     N      0.213040000000     0.245330000000     0.613010000000     0          
N359     N      0.183030000000     0.222600000000     0.610370000000     0          
N360     N      0.152880000000     0.200140000000     0.607260000000     0          
H421     H      0.794000000000     0.424700000000     0.303500000000     0          
N423     N      0.745330000000     0.386990000000     0.286960000000     0          
N424     N      0.722600000000     0.389630000000     0.316970000000     0          
N425     N      0.700140000000     0.392740000000     0.347120000000     0          
N428     N      0.745330000000     0.886990000000     0.786960000000     0          
N429     N      0.722600000000     0.889630000000     0.816970000000     0          
N430     N      0.700140000000     0.892740000000     0.847120000000     0          
H431     H      0.294000000000     0.424700000000     0.803500000000     0          
N433     N      0.245330000000     0.386990000000     0.786960000000     0          
N434     N      0.222600000000     0.389630000000     0.816970000000     0          
N435     N      0.200140000000     0.392740000000     0.847120000000     0          
H436     H      0.294000000000     0.924700000000     0.303500000000     0          
N438     N      0.245330000000     0.886990000000     0.286960000000     0          
N439     N      0.222600000000     0.889630000000     0.316970000000     0          
N440     N      0.200140000000     0.892740000000     0.347120000000     0          
H441     H      0.206000000000     0.575300000000     0.303500000000     0          
N443     N      0.254670000000     0.613010000000     0.286960000000     0          
N444     N      0.277400000000     0.610370000000     0.316970000000     0          
N445     N      0.299860000000     0.607260000000     0.347120000000     0          
H446     H      0.206000000000     0.075300000000     0.803500000000     0          
N448     N      0.254670000000     0.113010000000     0.786960000000     0          
N449     N      0.277400000000     0.110370000000     0.816970000000     0          
N450     N      0.299860000000     0.107260000000     0.847120000000     0          
H451     H      0.706000000000     0.575300000000     0.803500000000     0          
N453     N      0.754670000000     0.613010000000     0.786960000000     0          
N454     N      0.777400000000     0.610370000000     0.816970000000     0          
N455     N      0.799860000000     0.607260000000     0.847120000000     0          
H456     H      0.706000000000     0.075300000000     0.303500000000     0          
N458     N      0.754670000000     0.113010000000     0.286960000000     0          
N459     N      0.777400000000     0.110370000000     0.316970000000     0          
N460     N      0.799860000000     0.107260000000     0.347120000000     0          
H536     H      0.803500000000     0.924700000000     0.794000000000     0          
H581     H      0.206000000000     0.303500000000     0.575300000000     0          
H586     H      0.206000000000     0.803500000000     0.075300000000     0          
H591     H      0.706000000000     0.303500000000     0.075300000000     0          
H596     H      0.706000000000     0.803500000000     0.575300000000     0          
H661     H      0.575300000000     0.206000000000     0.303500000000     0          
H666     H      0.575300000000     0.706000000000     0.803500000000     0          
H671     H      0.075300000000     0.206000000000     0.803500000000     0          
H676     H      0.075300000000     0.706000000000     0.303500000000     0          
H761     H      0.424700000000     0.303500000000     0.206000000000     0          
H766     H      0.424700000000     0.803500000000     0.706000000000     0          
H771     H      0.924700000000     0.303500000000     0.706000000000     0          
H776     H      0.924700000000     0.803500000000     0.206000000000     0          
H781     H      0.575300000000     0.696500000000     0.206000000000     0          
H786     H      0.575300000000     0.196500000000     0.706000000000     0          
H821     H      0.303500000000     0.206000000000     0.424700000000     0          
H826     H      0.303500000000     0.706000000000     0.924700000000     0          
H831     H      0.803500000000     0.206000000000     0.924700000000     0          
H836     H      0.803500000000     0.706000000000     0.424700000000     0          
H916     H      0.706000000000     0.075300000000     0.696500000000     0          
Zr961    Zr     0.424750000000     0.500000000000     0.000000000000     0          
Zr962    Zr     0.924750000000     0.500000000000     0.500000000000     0          
Zr963    Zr     0.575250000000     0.500000000000     0.000000000000     0          
Zr964    Zr     0.075250000000     0.500000000000     0.500000000000     0          
Zr965    Zr     0.000000000000     0.424750000000     0.500000000000     0          
Zr966    Zr     0.000000000000     0.924750000000     0.000000000000     0          
Zr967    Zr     0.000000000000     0.575250000000     0.500000000000     0          
Zr968    Zr     0.000000000000     0.075250000000     0.000000000000     0          
Zr969    Zr     0.500000000000     0.000000000000     0.424750000000     0          
Zr970    Zr     0.500000000000     0.500000000000     0.924750000000     0          
Zr971    Zr     0.500000000000     0.000000000000     0.575250000000     0          
Zr972    Zr     0.500000000000     0.500000000000     0.075250000000     0          
Zr973    Zr     0.500000000000     0.424750000000     0.000000000000     0          
Zr974    Zr     0.500000000000     0.924750000000     0.500000000000     0          
Zr975    Zr     0.500000000000     0.575250000000     0.000000000000     0          
Zr976    Zr     0.500000000000     0.075250000000     0.500000000000     0          
Zr977    Zr     0.424750000000     0.000000000000     0.500000000000     0          
Zr978    Zr     0.924750000000     0.000000000000     0.000000000000     0          
Zr979    Zr     0.575250000000     0.000000000000     0.500000000000     0          
Zr980    Zr     0.075250000000     0.000000000000     0.000000000000     0          
Zr981    Zr     0.000000000000     0.500000000000     0.575250000000     0          
Zr982    Zr     0.000000000000     0.000000000000     0.075250000000     0          
Zr983    Zr     0.000000000000     0.500000000000     0.424750000000     0          
Zr984    Zr     0.000000000000     0.000000000000     0.924750000000     0          
O985     O      0.391530000000     0.500000000000     0.941030000000     0          
C986     C      0.382930000000     0.500000000000     0.831810000000     0          
H987     H      0.410400000000     0.500000000000     0.824400000000     0          
C988     C      0.352890000000     0.500000000000     0.802130000000     0          
H989     H      0.360300000000     0.500000000000     0.774700000000     0          
O990     O      0.391530000000     0.000000000000     0.441030000000     0          
C991     C      0.382930000000     0.000000000000     0.331810000000     0          
H992     H      0.410400000000     0.000000000000     0.324400000000     0          
C993     C      0.352890000000     0.000000000000     0.302130000000     0          
H994     H      0.360300000000     0.000000000000     0.274700000000     0          
O995     O      0.891530000000     0.500000000000     0.441030000000     0          
C996     C      0.882930000000     0.500000000000     0.331810000000     0          
H997     H      0.910400000000     0.500000000000     0.324400000000     0          
C998     C      0.852890000000     0.500000000000     0.302130000000     0          
H999     H      0.860300000000     0.500000000000     0.274700000000     0          
O1000    O      0.891530000000     0.000000000000     0.941030000000     0          
C1001    C      0.882930000000     0.000000000000     0.831810000000     0          
H1002    H      0.910400000000     0.000000000000     0.824400000000     0          
C1003    C      0.852890000000     0.000000000000     0.802130000000     0          
H1004    H      0.860300000000     0.000000000000     0.774700000000     0          
O1005    O      0.608470000000     0.500000000000     0.941030000000     0          
C1006    C      0.617070000000     0.500000000000     0.831810000000     0          
H1007    H      0.589600000000     0.500000000000     0.824400000000     0          
C1008    C      0.647110000000     0.500000000000     0.802130000000     0          
H1009    H      0.639700000000     0.500000000000     0.774700000000     0          
O1010    O      0.608470000000     0.000000000000     0.441030000000     0          
C1011    C      0.617070000000     0.000000000000     0.331810000000     0          
H1012    H      0.589600000000     0.000000000000     0.324400000000     0          
C1013    C      0.647110000000     0.000000000000     0.302130000000     0          
H1014    H      0.639700000000     0.000000000000     0.274700000000     0          
O1015    O      0.108470000000     0.500000000000     0.441030000000     0          
C1016    C      0.117070000000     0.500000000000     0.331810000000     0          
H1017    H      0.089600000000     0.500000000000     0.324400000000     0          
C1018    C      0.147110000000     0.500000000000     0.302130000000     0          
H1019    H      0.139700000000     0.500000000000     0.274700000000     0          
O1020    O      0.108470000000     0.000000000000     0.941030000000     0          
C1021    C      0.117070000000     0.000000000000     0.831810000000     0          
H1022    H      0.089600000000     0.000000000000     0.824400000000     0          
C1023    C      0.147110000000     0.000000000000     0.802130000000     0          
H1024    H      0.139700000000     0.000000000000     0.774700000000     0          
O1025    O      0.608470000000     0.500000000000     0.058970000000     0          
C1026    C      0.617070000000     0.500000000000     0.168190000000     0          
H1027    H      0.589600000000     0.500000000000     0.175600000000     0          
C1028    C      0.647110000000     0.500000000000     0.197870000000     0          
H1029    H      0.639700000000     0.500000000000     0.225300000000     0          
O1030    O      0.608470000000     0.000000000000     0.558970000000     0          
C1031    C      0.617070000000     0.000000000000     0.668190000000     0          
H1032    H      0.589600000000     0.000000000000     0.675600000000     0          
C1033    C      0.647110000000     0.000000000000     0.697870000000     0          
H1034    H      0.639700000000     0.000000000000     0.725300000000     0          
O1035    O      0.108470000000     0.500000000000     0.558970000000     0          
C1036    C      0.117070000000     0.500000000000     0.668190000000     0          
H1037    H      0.089600000000     0.500000000000     0.675600000000     0          
C1038    C      0.147110000000     0.500000000000     0.697870000000     0          
H1039    H      0.139700000000     0.500000000000     0.725300000000     0          
O1040    O      0.108470000000     0.000000000000     0.058970000000     0          
C1041    C      0.117070000000     0.000000000000     0.168190000000     0          
H1042    H      0.089600000000     0.000000000000     0.175600000000     0          
C1043    C      0.147110000000     0.000000000000     0.197870000000     0          
H1044    H      0.139700000000     0.000000000000     0.225300000000     0          
O1045    O      0.391530000000     0.500000000000     0.058970000000     0          
C1046    C      0.382930000000     0.500000000000     0.168190000000     0          
H1047    H      0.410400000000     0.500000000000     0.175600000000     0          
C1048    C      0.352890000000     0.500000000000     0.197870000000     0          
H1049    H      0.360300000000     0.500000000000     0.225300000000     0          
O1050    O      0.391530000000     0.000000000000     0.558970000000     0          
C1051    C      0.382930000000     0.000000000000     0.668190000000     0          
H1052    H      0.410400000000     0.000000000000     0.675600000000     0          
C1053    C      0.352890000000     0.000000000000     0.697870000000     0          
H1054    H      0.360300000000     0.000000000000     0.725300000000     0          
O1055    O      0.891530000000     0.500000000000     0.558970000000     0          
C1056    C      0.882930000000     0.500000000000     0.668190000000     0          
H1057    H      0.910400000000     0.500000000000     0.675600000000     0          
C1058    C      0.852890000000     0.500000000000     0.697870000000     0          
H1059    H      0.860300000000     0.500000000000     0.725300000000     0          
O1060    O      0.891530000000     0.000000000000     0.058970000000     0          
C1061    C      0.882930000000     0.000000000000     0.168190000000     0          
H1062    H      0.910400000000     0.000000000000     0.175600000000     0          
C1063    C      0.852890000000     0.000000000000     0.197870000000     0          
H1064    H      0.860300000000     0.000000000000     0.225300000000     0          
O1065    O      0.941030000000     0.391530000000     0.500000000000     0          
C1066    C      0.831810000000     0.382930000000     0.500000000000     0          
H1067    H      0.824400000000     0.410400000000     0.500000000000     0          
C1068    C      0.802130000000     0.352890000000     0.500000000000     0          
H1069    H      0.774700000000     0.360300000000     0.500000000000     0          
O1070    O      0.941030000000     0.891530000000     0.000000000000     0          
C1071    C      0.831810000000     0.882930000000     0.000000000000     0          
H1072    H      0.824400000000     0.910400000000     0.000000000000     0          
C1073    C      0.802130000000     0.852890000000     0.000000000000     0          
H1074    H      0.774700000000     0.860300000000     0.000000000000     0          
O1075    O      0.441030000000     0.391530000000     0.000000000000     0          
C1076    C      0.331810000000     0.382930000000     0.000000000000     0          
H1077    H      0.324400000000     0.410400000000     0.000000000000     0          
C1078    C      0.302130000000     0.352890000000     0.000000000000     0          
H1079    H      0.274700000000     0.360300000000     0.000000000000     0          
O1080    O      0.441030000000     0.891530000000     0.500000000000     0          
C1081    C      0.331810000000     0.882930000000     0.500000000000     0          
H1082    H      0.324400000000     0.910400000000     0.500000000000     0          
C1083    C      0.302130000000     0.852890000000     0.500000000000     0          
H1084    H      0.274700000000     0.860300000000     0.500000000000     0          
O1085    O      0.941030000000     0.608470000000     0.500000000000     0          
C1086    C      0.831810000000     0.617070000000     0.500000000000     0          
H1087    H      0.824400000000     0.589600000000     0.500000000000     0          
C1088    C      0.802130000000     0.647110000000     0.500000000000     0          
H1089    H      0.774700000000     0.639700000000     0.500000000000     0          
O1090    O      0.941030000000     0.108470000000     0.000000000000     0          
C1091    C      0.831810000000     0.117070000000     0.000000000000     0          
H1092    H      0.824400000000     0.089600000000     0.000000000000     0          
C1093    C      0.802130000000     0.147110000000     0.000000000000     0          
H1094    H      0.774700000000     0.139700000000     0.000000000000     0          
O1095    O      0.441030000000     0.608470000000     0.000000000000     0          
C1096    C      0.331810000000     0.617070000000     0.000000000000     0          
H1097    H      0.324400000000     0.589600000000     0.000000000000     0          
C1098    C      0.302130000000     0.647110000000     0.000000000000     0          
H1099    H      0.274700000000     0.639700000000     0.000000000000     0          
O1100    O      0.441030000000     0.108470000000     0.500000000000     0          
C1101    C      0.331810000000     0.117070000000     0.500000000000     0          
H1102    H      0.324400000000     0.089600000000     0.500000000000     0          
C1103    C      0.302130000000     0.147110000000     0.500000000000     0          
H1104    H      0.274700000000     0.139700000000     0.500000000000     0          
O1105    O      0.058970000000     0.608470000000     0.500000000000     0          
C1106    C      0.168190000000     0.617070000000     0.500000000000     0          
H1107    H      0.175600000000     0.589600000000     0.500000000000     0          
C1108    C      0.197870000000     0.647110000000     0.500000000000     0          
H1109    H      0.225300000000     0.639700000000     0.500000000000     0          
O1110    O      0.058970000000     0.108470000000     0.000000000000     0          
C1111    C      0.168190000000     0.117070000000     0.000000000000     0          
H1112    H      0.175600000000     0.089600000000     0.000000000000     0          
C1113    C      0.197870000000     0.147110000000     0.000000000000     0          
H1114    H      0.225300000000     0.139700000000     0.000000000000     0          
O1115    O      0.558970000000     0.608470000000     0.000000000000     0          
C1116    C      0.668190000000     0.617070000000     0.000000000000     0          
H1117    H      0.675600000000     0.589600000000     0.000000000000     0          
C1118    C      0.697870000000     0.647110000000     0.000000000000     0          
H1119    H      0.725300000000     0.639700000000     0.000000000000     0          
O1120    O      0.558970000000     0.108470000000     0.500000000000     0          
C1121    C      0.668190000000     0.117070000000     0.500000000000     0          
H1122    H      0.675600000000     0.089600000000     0.500000000000     0          
C1123    C      0.697870000000     0.147110000000     0.500000000000     0          
H1124    H      0.725300000000     0.139700000000     0.500000000000     0          
O1125    O      0.058970000000     0.391530000000     0.500000000000     0          
C1126    C      0.168190000000     0.382930000000     0.500000000000     0          
H1127    H      0.175600000000     0.410400000000     0.500000000000     0          
C1128    C      0.197870000000     0.352890000000     0.500000000000     0          
H1129    H      0.225300000000     0.360300000000     0.500000000000     0          
O1130    O      0.058970000000     0.891530000000     0.000000000000     0          
C1131    C      0.168190000000     0.882930000000     0.000000000000     0          
H1132    H      0.175600000000     0.910400000000     0.000000000000     0          
C1133    C      0.197870000000     0.852890000000     0.000000000000     0          
H1134    H      0.225300000000     0.860300000000     0.000000000000     0          
O1135    O      0.558970000000     0.391530000000     0.000000000000     0          
C1136    C      0.668190000000     0.382930000000     0.000000000000     0          
H1137    H      0.675600000000     0.410400000000     0.000000000000     0          
C1138    C      0.697870000000     0.352890000000     0.000000000000     0          
H1139    H      0.725300000000     0.360300000000     0.000000000000     0          
O1140    O      0.558970000000     0.891530000000     0.500000000000     0          
C1141    C      0.668190000000     0.882930000000     0.500000000000     0          
H1142    H      0.675600000000     0.910400000000     0.500000000000     0          
C1143    C      0.697870000000     0.852890000000     0.500000000000     0          
H1144    H      0.725300000000     0.860300000000     0.500000000000     0          
O1145    O      0.500000000000     0.941030000000     0.391530000000     0          
C1146    C      0.500000000000     0.831810000000     0.382930000000     0          
H1147    H      0.500000000000     0.824400000000     0.410400000000     0          
C1148    C      0.500000000000     0.802130000000     0.352890000000     0          
H1149    H      0.500000000000     0.774700000000     0.360300000000     0          
O1150    O      0.500000000000     0.441030000000     0.891530000000     0          
C1151    C      0.500000000000     0.331810000000     0.882930000000     0          
H1152    H      0.500000000000     0.324400000000     0.910400000000     0          
C1153    C      0.500000000000     0.302130000000     0.852890000000     0          
H1154    H      0.500000000000     0.274700000000     0.860300000000     0          
O1155    O      0.000000000000     0.941030000000     0.891530000000     0          
C1156    C      0.000000000000     0.831810000000     0.882930000000     0          
H1157    H      0.000000000000     0.824400000000     0.910400000000     0          
C1158    C      0.000000000000     0.802130000000     0.852890000000     0          
H1159    H      0.000000000000     0.774700000000     0.860300000000     0          
O1160    O      0.000000000000     0.441030000000     0.391530000000     0          
C1161    C      0.000000000000     0.331810000000     0.382930000000     0          
H1162    H      0.000000000000     0.324400000000     0.410400000000     0          
C1163    C      0.000000000000     0.302130000000     0.352890000000     0          
H1164    H      0.000000000000     0.274700000000     0.360300000000     0          
O1165    O      0.500000000000     0.941030000000     0.608470000000     0          
C1166    C      0.500000000000     0.831810000000     0.617070000000     0          
H1167    H      0.500000000000     0.824400000000     0.589600000000     0          
C1168    C      0.500000000000     0.802130000000     0.647110000000     0          
H1169    H      0.500000000000     0.774700000000     0.639700000000     0          
O1170    O      0.500000000000     0.441030000000     0.108470000000     0          
C1171    C      0.500000000000     0.331810000000     0.117070000000     0          
H1172    H      0.500000000000     0.324400000000     0.089600000000     0          
C1173    C      0.500000000000     0.302130000000     0.147110000000     0          
H1174    H      0.500000000000     0.274700000000     0.139700000000     0          
O1175    O      0.000000000000     0.941030000000     0.108470000000     0          
C1176    C      0.000000000000     0.831810000000     0.117070000000     0          
H1177    H      0.000000000000     0.824400000000     0.089600000000     0          
C1178    C      0.000000000000     0.802130000000     0.147110000000     0          
H1179    H      0.000000000000     0.774700000000     0.139700000000     0          
O1180    O      0.000000000000     0.441030000000     0.608470000000     0          
C1181    C      0.000000000000     0.331810000000     0.617070000000     0          
H1182    H      0.000000000000     0.324400000000     0.589600000000     0          
C1183    C      0.000000000000     0.302130000000     0.647110000000     0          
H1184    H      0.000000000000     0.274700000000     0.639700000000     0          
O1185    O      0.500000000000     0.058970000000     0.608470000000     0          
C1186    C      0.500000000000     0.168190000000     0.617070000000     0          
H1187    H      0.500000000000     0.175600000000     0.589600000000     0          
C1188    C      0.500000000000     0.197870000000     0.647110000000     0          
H1189    H      0.500000000000     0.225300000000     0.639700000000     0          
O1190    O      0.500000000000     0.558970000000     0.108470000000     0          
C1191    C      0.500000000000     0.668190000000     0.117070000000     0          
H1192    H      0.500000000000     0.675600000000     0.089600000000     0          
C1193    C      0.500000000000     0.697870000000     0.147110000000     0          
H1194    H      0.500000000000     0.725300000000     0.139700000000     0          
O1195    O      0.000000000000     0.058970000000     0.108470000000     0          
C1196    C      0.000000000000     0.168190000000     0.117070000000     0          
H1197    H      0.000000000000     0.175600000000     0.089600000000     0          
C1198    C      0.000000000000     0.197870000000     0.147110000000     0          
H1199    H      0.000000000000     0.225300000000     0.139700000000     0          
O1200    O      0.000000000000     0.558970000000     0.608470000000     0          
C1201    C      0.000000000000     0.668190000000     0.617070000000     0          
H1202    H      0.000000000000     0.675600000000     0.589600000000     0          
C1203    C      0.000000000000     0.697870000000     0.647110000000     0          
H1204    H      0.000000000000     0.725300000000     0.639700000000     0          
O1205    O      0.500000000000     0.058970000000     0.391530000000     0          
C1206    C      0.500000000000     0.168190000000     0.382930000000     0          
H1207    H      0.500000000000     0.175600000000     0.410400000000     0          
C1208    C      0.500000000000     0.197870000000     0.352890000000     0          
H1209    H      0.500000000000     0.225300000000     0.360300000000     0          
O1210    O      0.500000000000     0.558970000000     0.891530000000     0          
C1211    C      0.500000000000     0.668190000000     0.882930000000     0          
H1212    H      0.500000000000     0.675600000000     0.910400000000     0          
C1213    C      0.500000000000     0.697870000000     0.852890000000     0          
H1214    H      0.500000000000     0.725300000000     0.860300000000     0          
O1215    O      0.000000000000     0.058970000000     0.891530000000     0          
C1216    C      0.000000000000     0.168190000000     0.882930000000     0          
H1217    H      0.000000000000     0.175600000000     0.910400000000     0          
C1218    C      0.000000000000     0.197870000000     0.852890000000     0          
H1219    H      0.000000000000     0.225300000000     0.860300000000     0          
O1220    O      0.000000000000     0.558970000000     0.391530000000     0          
C1221    C      0.000000000000     0.668190000000     0.382930000000     0          
H1222    H      0.000000000000     0.675600000000     0.410400000000     0          
C1223    C      0.000000000000     0.697870000000     0.352890000000     0          
H1224    H      0.000000000000     0.725300000000     0.360300000000     0          
O1225    O      0.500000000000     0.391530000000     0.058970000000     0          
C1226    C      0.500000000000     0.382930000000     0.168190000000     0          
H1227    H      0.500000000000     0.410400000000     0.175600000000     0          
C1228    C      0.500000000000     0.352890000000     0.197870000000     0          
H1229    H      0.500000000000     0.360300000000     0.225300000000     0          
O1230    O      0.500000000000     0.891530000000     0.558970000000     0          
C1231    C      0.500000000000     0.882930000000     0.668190000000     0          
H1232    H      0.500000000000     0.910400000000     0.675600000000     0          
C1233    C      0.500000000000     0.852890000000     0.697870000000     0          
H1234    H      0.500000000000     0.860300000000     0.725300000000     0          
O1235    O      0.000000000000     0.391530000000     0.558970000000     0          
C1236    C      0.000000000000     0.382930000000     0.668190000000     0          
H1237    H      0.000000000000     0.410400000000     0.675600000000     0          
C1238    C      0.000000000000     0.352890000000     0.697870000000     0          
H1239    H      0.000000000000     0.360300000000     0.725300000000     0          
O1240    O      0.000000000000     0.891530000000     0.058970000000     0          
C1241    C      0.000000000000     0.882930000000     0.168190000000     0          
H1242    H      0.000000000000     0.910400000000     0.175600000000     0          
C1243    C      0.000000000000     0.852890000000     0.197870000000     0          
H1244    H      0.000000000000     0.860300000000     0.225300000000     0          
O1245    O      0.500000000000     0.608470000000     0.058970000000     0          
C1246    C      0.500000000000     0.617070000000     0.168190000000     0          
H1247    H      0.500000000000     0.589600000000     0.175600000000     0          
C1248    C      0.500000000000     0.647110000000     0.197870000000     0          
H1249    H      0.500000000000     0.639700000000     0.225300000000     0          
O1250    O      0.500000000000     0.108470000000     0.558970000000     0          
C1251    C      0.500000000000     0.117070000000     0.668190000000     0          
H1252    H      0.500000000000     0.089600000000     0.675600000000     0          
C1253    C      0.500000000000     0.147110000000     0.697870000000     0          
H1254    H      0.500000000000     0.139700000000     0.725300000000     0          
O1255    O      0.000000000000     0.608470000000     0.558970000000     0          
C1256    C      0.000000000000     0.617070000000     0.668190000000     0          
H1257    H      0.000000000000     0.589600000000     0.675600000000     0          
C1258    C      0.000000000000     0.647110000000     0.697870000000     0          
H1259    H      0.000000000000     0.639700000000     0.725300000000     0          
O1260    O      0.000000000000     0.108470000000     0.058970000000     0          
C1261    C      0.000000000000     0.117070000000     0.168190000000     0          
H1262    H      0.000000000000     0.089600000000     0.175600000000     0          
C1263    C      0.000000000000     0.147110000000     0.197870000000     0          
H1264    H      0.000000000000     0.139700000000     0.225300000000     0          
O1265    O      0.500000000000     0.608470000000     0.941030000000     0          
C1266    C      0.500000000000     0.617070000000     0.831810000000     0          
H1267    H      0.500000000000     0.589600000000     0.824400000000     0          
C1268    C      0.500000000000     0.647110000000     0.802130000000     0          
H1269    H      0.500000000000     0.639700000000     0.774700000000     0          
O1270    O      0.500000000000     0.108470000000     0.441030000000     0          
C1271    C      0.500000000000     0.117070000000     0.331810000000     0          
H1272    H      0.500000000000     0.089600000000     0.324400000000     0          
C1273    C      0.500000000000     0.147110000000     0.302130000000     0          
H1274    H      0.500000000000     0.139700000000     0.274700000000     0          
O1275    O      0.000000000000     0.608470000000     0.441030000000     0          
C1276    C      0.000000000000     0.617070000000     0.331810000000     0          
H1277    H      0.000000000000     0.589600000000     0.324400000000     0          
C1278    C      0.000000000000     0.647110000000     0.302130000000     0          
H1279    H      0.000000000000     0.639700000000     0.274700000000     0          
O1280    O      0.000000000000     0.108470000000     0.941030000000     0          
C1281    C      0.000000000000     0.117070000000     0.831810000000     0          
H1282    H      0.000000000000     0.089600000000     0.824400000000     0          
C1283    C      0.000000000000     0.147110000000     0.802130000000     0          
H1284    H      0.000000000000     0.139700000000     0.774700000000     0          
O1285    O      0.500000000000     0.391530000000     0.941030000000     0          
C1286    C      0.500000000000     0.382930000000     0.831810000000     0          
H1287    H      0.500000000000     0.410400000000     0.824400000000     0          
C1288    C      0.500000000000     0.352890000000     0.802130000000     0          
H1289    H      0.500000000000     0.360300000000     0.774700000000     0          
O1290    O      0.500000000000     0.891530000000     0.441030000000     0          
C1291    C      0.500000000000     0.882930000000     0.331810000000     0          
H1292    H      0.500000000000     0.910400000000     0.324400000000     0          
C1293    C      0.500000000000     0.852890000000     0.302130000000     0          
H1294    H      0.500000000000     0.860300000000     0.274700000000     0          
O1295    O      0.000000000000     0.391530000000     0.441030000000     0          
C1296    C      0.000000000000     0.382930000000     0.331810000000     0          
H1297    H      0.000000000000     0.410400000000     0.324400000000     0          
C1298    C      0.000000000000     0.352890000000     0.302130000000     0          
H1299    H      0.000000000000     0.360300000000     0.274700000000     0          
O1300    O      0.000000000000     0.891530000000     0.941030000000     0          
C1301    C      0.000000000000     0.882930000000     0.831810000000     0          
H1302    H      0.000000000000     0.910400000000     0.824400000000     0          
C1303    C      0.000000000000     0.852890000000     0.802130000000     0          
H1304    H      0.000000000000     0.860300000000     0.774700000000     0          
O1305    O      0.391530000000     0.941030000000     0.500000000000     0          
C1306    C      0.382930000000     0.831810000000     0.500000000000     0          
H1307    H      0.410400000000     0.824400000000     0.500000000000     0          
C1308    C      0.352890000000     0.802130000000     0.500000000000     0          
H1309    H      0.360300000000     0.774700000000     0.500000000000     0          
O1310    O      0.391530000000     0.441030000000     0.000000000000     0          
C1311    C      0.382930000000     0.331810000000     0.000000000000     0          
H1312    H      0.410400000000     0.324400000000     0.000000000000     0          
C1313    C      0.352890000000     0.302130000000     0.000000000000     0          
H1314    H      0.360300000000     0.274700000000     0.000000000000     0          
O1315    O      0.891530000000     0.941030000000     0.000000000000     0          
C1316    C      0.882930000000     0.831810000000     0.000000000000     0          
H1317    H      0.910400000000     0.824400000000     0.000000000000     0          
C1318    C      0.852890000000     0.802130000000     0.000000000000     0          
H1319    H      0.860300000000     0.774700000000     0.000000000000     0          
O1320    O      0.891530000000     0.441030000000     0.500000000000     0          
C1321    C      0.882930000000     0.331810000000     0.500000000000     0          
H1322    H      0.910400000000     0.324400000000     0.500000000000     0          
C1323    C      0.852890000000     0.302130000000     0.500000000000     0          
H1324    H      0.860300000000     0.274700000000     0.500000000000     0          
O1325    O      0.608470000000     0.941030000000     0.500000000000     0          
C1326    C      0.617070000000     0.831810000000     0.500000000000     0          
H1327    H      0.589600000000     0.824400000000     0.500000000000     0          
C1328    C      0.647110000000     0.802130000000     0.500000000000     0          
H1329    H      0.639700000000     0.774700000000     0.500000000000     0          
O1330    O      0.608470000000     0.441030000000     0.000000000000     0          
C1331    C      0.617070000000     0.331810000000     0.000000000000     0          
H1332    H      0.589600000000     0.324400000000     0.000000000000     0          
C1333    C      0.647110000000     0.302130000000     0.000000000000     0          
H1334    H      0.639700000000     0.274700000000     0.000000000000     0          
O1335    O      0.108470000000     0.941030000000     0.000000000000     0          
C1336    C      0.117070000000     0.831810000000     0.000000000000     0          
H1337    H      0.089600000000     0.824400000000     0.000000000000     0          
C1338    C      0.147110000000     0.802130000000     0.000000000000     0          
H1339    H      0.139700000000     0.774700000000     0.000000000000     0          
O1340    O      0.108470000000     0.441030000000     0.500000000000     0          
C1341    C      0.117070000000     0.331810000000     0.500000000000     0          
H1342    H      0.089600000000     0.324400000000     0.500000000000     0          
C1343    C      0.147110000000     0.302130000000     0.500000000000     0          
H1344    H      0.139700000000     0.274700000000     0.500000000000     0          
O1345    O      0.608470000000     0.058970000000     0.500000000000     0          
C1346    C      0.617070000000     0.168190000000     0.500000000000     0          
H1347    H      0.589600000000     0.175600000000     0.500000000000     0          
C1348    C      0.647110000000     0.197870000000     0.500000000000     0          
H1349    H      0.639700000000     0.225300000000     0.500000000000     0          
O1350    O      0.608470000000     0.558970000000     0.000000000000     0          
C1351    C      0.617070000000     0.668190000000     0.000000000000     0          
H1352    H      0.589600000000     0.675600000000     0.000000000000     0          
C1353    C      0.647110000000     0.697870000000     0.000000000000     0          
H1354    H      0.639700000000     0.725300000000     0.000000000000     0          
O1355    O      0.108470000000     0.058970000000     0.000000000000     0          
C1356    C      0.117070000000     0.168190000000     0.000000000000     0          
H1357    H      0.089600000000     0.175600000000     0.000000000000     0          
C1358    C      0.147110000000     0.197870000000     0.000000000000     0          
H1359    H      0.139700000000     0.225300000000     0.000000000000     0          
O1360    O      0.108470000000     0.558970000000     0.500000000000     0          
C1361    C      0.117070000000     0.668190000000     0.500000000000     0          
H1362    H      0.089600000000     0.675600000000     0.500000000000     0          
C1363    C      0.147110000000     0.697870000000     0.500000000000     0          
H1364    H      0.139700000000     0.725300000000     0.500000000000     0          
O1365    O      0.391530000000     0.058970000000     0.500000000000     0          
C1366    C      0.382930000000     0.168190000000     0.500000000000     0          
H1367    H      0.410400000000     0.175600000000     0.500000000000     0          
C1368    C      0.352890000000     0.197870000000     0.500000000000     0          
H1369    H      0.360300000000     0.225300000000     0.500000000000     0          
O1370    O      0.391530000000     0.558970000000     0.000000000000     0          
C1371    C      0.382930000000     0.668190000000     0.000000000000     0          
H1372    H      0.410400000000     0.675600000000     0.000000000000     0          
C1373    C      0.352890000000     0.697870000000     0.000000000000     0          
H1374    H      0.360300000000     0.725300000000     0.000000000000     0          
O1375    O      0.891530000000     0.058970000000     0.000000000000     0          
C1376    C      0.882930000000     0.168190000000     0.000000000000     0          
H1377    H      0.910400000000     0.175600000000     0.000000000000     0          
C1378    C      0.852890000000     0.197870000000     0.000000000000     0          
H1379    H      0.860300000000     0.225300000000     0.000000000000     0          
O1380    O      0.891530000000     0.558970000000     0.500000000000     0          
C1381    C      0.882930000000     0.668190000000     0.500000000000     0          
H1382    H      0.910400000000     0.675600000000     0.500000000000     0          
C1383    C      0.852890000000     0.697870000000     0.500000000000     0          
H1384    H      0.860300000000     0.725300000000     0.500000000000     0          
O1385    O      0.941030000000     0.500000000000     0.608470000000     0          
C1386    C      0.831810000000     0.500000000000     0.617070000000     0          
H1387    H      0.824400000000     0.500000000000     0.589600000000     0          
C1388    C      0.802130000000     0.500000000000     0.647110000000     0          
H1389    H      0.774700000000     0.500000000000     0.639700000000     0          
O1390    O      0.941030000000     0.000000000000     0.108470000000     0          
C1391    C      0.831810000000     0.000000000000     0.117070000000     0          
H1392    H      0.824400000000     0.000000000000     0.089600000000     0          
C1393    C      0.802130000000     0.000000000000     0.147110000000     0          
H1394    H      0.774700000000     0.000000000000     0.139700000000     0          
O1395    O      0.441030000000     0.500000000000     0.108470000000     0          
C1396    C      0.331810000000     0.500000000000     0.117070000000     0          
H1397    H      0.324400000000     0.500000000000     0.089600000000     0          
C1398    C      0.302130000000     0.500000000000     0.147110000000     0          
H1399    H      0.274700000000     0.500000000000     0.139700000000     0          
O1400    O      0.441030000000     0.000000000000     0.608470000000     0          
C1401    C      0.331810000000     0.000000000000     0.617070000000     0          
H1402    H      0.324400000000     0.000000000000     0.589600000000     0          
C1403    C      0.302130000000     0.000000000000     0.647110000000     0          
H1404    H      0.274700000000     0.000000000000     0.639700000000     0          
O1405    O      0.941030000000     0.500000000000     0.391530000000     0          
C1406    C      0.831810000000     0.500000000000     0.382930000000     0          
H1407    H      0.824400000000     0.500000000000     0.410400000000     0          
C1408    C      0.802130000000     0.500000000000     0.352890000000     0          
H1409    H      0.774700000000     0.500000000000     0.360300000000     0          
O1410    O      0.941030000000     0.000000000000     0.891530000000     0          
C1411    C      0.831810000000     0.000000000000     0.882930000000     0          
H1412    H      0.824400000000     0.000000000000     0.910400000000     0          
C1413    C      0.802130000000     0.000000000000     0.852890000000     0          
H1414    H      0.774700000000     0.000000000000     0.860300000000     0          
O1415    O      0.441030000000     0.500000000000     0.891530000000     0          
C1416    C      0.331810000000     0.500000000000     0.882930000000     0          
H1417    H      0.324400000000     0.500000000000     0.910400000000     0          
C1418    C      0.302130000000     0.500000000000     0.852890000000     0          
H1419    H      0.274700000000     0.500000000000     0.860300000000     0          
O1420    O      0.441030000000     0.000000000000     0.391530000000     0          
C1421    C      0.331810000000     0.000000000000     0.382930000000     0          
H1422    H      0.324400000000     0.000000000000     0.410400000000     0          
C1423    C      0.302130000000     0.000000000000     0.352890000000     0          
H1424    H      0.274700000000     0.000000000000     0.360300000000     0          
O1425    O      0.058970000000     0.500000000000     0.391530000000     0          
C1426    C      0.168190000000     0.500000000000     0.382930000000     0          
H1427    H      0.175600000000     0.500000000000     0.410400000000     0          
C1428    C      0.197870000000     0.500000000000     0.352890000000     0          
H1429    H      0.225300000000     0.500000000000     0.360300000000     0          
O1430    O      0.058970000000     0.000000000000     0.891530000000     0          
C1431    C      0.168190000000     0.000000000000     0.882930000000     0          
H1432    H      0.175600000000     0.000000000000     0.910400000000     0          
C1433    C      0.197870000000     0.000000000000     0.852890000000     0          
H1434    H      0.225300000000     0.000000000000     0.860300000000     0          
O1435    O      0.558970000000     0.500000000000     0.891530000000     0          
C1436    C      0.668190000000     0.500000000000     0.882930000000     0          
H1437    H      0.675600000000     0.500000000000     0.910400000000     0          
C1438    C      0.697870000000     0.500000000000     0.852890000000     0          
H1439    H      0.725300000000     0.500000000000     0.860300000000     0          
O1440    O      0.558970000000     0.000000000000     0.391530000000     0          
C1441    C      0.668190000000     0.000000000000     0.382930000000     0          
H1442    H      0.675600000000     0.000000000000     0.410400000000     0          
C1443    C      0.697870000000     0.000000000000     0.352890000000     0          
H1444    H      0.725300000000     0.000000000000     0.360300000000     0          
O1445    O      0.058970000000     0.500000000000     0.608470000000     0          
C1446    C      0.168190000000     0.500000000000     0.617070000000     0          
H1447    H      0.175600000000     0.500000000000     0.589600000000     0          
C1448    C      0.197870000000     0.500000000000     0.647110000000     0          
H1449    H      0.225300000000     0.500000000000     0.639700000000     0          
O1450    O      0.058970000000     0.000000000000     0.108470000000     0          
C1451    C      0.168190000000     0.000000000000     0.117070000000     0          
H1452    H      0.175600000000     0.000000000000     0.089600000000     0          
C1453    C      0.197870000000     0.000000000000     0.147110000000     0          
H1454    H      0.225300000000     0.000000000000     0.139700000000     0          
O1455    O      0.558970000000     0.500000000000     0.108470000000     0          
C1456    C      0.668190000000     0.500000000000     0.117070000000     0          
H1457    H      0.675600000000     0.500000000000     0.089600000000     0          
C1458    C      0.697870000000     0.500000000000     0.147110000000     0          
H1459    H      0.725300000000     0.500000000000     0.139700000000     0          
O1460    O      0.558970000000     0.000000000000     0.608470000000     0          
C1461    C      0.668190000000     0.000000000000     0.617070000000     0          
H1462    H      0.675600000000     0.000000000000     0.589600000000     0          
C1463    C      0.697870000000     0.000000000000     0.647110000000     0          
H1464    H      0.725300000000     0.000000000000     0.639700000000     0          
O1465    O      0.463330000000     0.536670000000     0.963330000000     0          
O1466    O      0.536670000000     0.463330000000     0.963330000000     0          
O1467    O      0.536670000000     0.536670000000     0.036670000000     0          
O1468    O      0.463330000000     0.463330000000     0.036670000000     0          
O1469    O      0.963330000000     0.463330000000     0.536670000000     0          
O1471    O      0.963330000000     0.536670000000     0.463330000000     0          
O1473    O      0.036670000000     0.536670000000     0.536670000000     0          
O1474    O      0.036670000000     0.036670000000     0.036670000000     0          
O1475    O      0.036670000000     0.463330000000     0.463330000000     0          
O1477    O      0.536670000000     0.963330000000     0.463330000000     0          
O1478    O      0.463330000000     0.963330000000     0.536670000000     0          
O1479    O      0.536670000000     0.036670000000     0.536670000000     0          
O1480    O      0.463330000000     0.036670000000     0.463330000000     0          
O1481    O      0.536670000000     0.463330000000     0.036670000000     0          
O1482    O      0.463330000000     0.536670000000     0.036670000000     0          
O1483    O      0.536670000000     0.536670000000     0.963330000000     0          
O1484    O      0.463330000000     0.463330000000     0.963330000000     0          
O1485    O      0.463330000000     0.963330000000     0.463330000000     0          
O1486    O      0.536670000000     0.963330000000     0.536670000000     0          
O1487    O      0.536670000000     0.036670000000     0.463330000000     0          
O1488    O      0.463330000000     0.036670000000     0.536670000000     0          
O1489    O      0.963330000000     0.536670000000     0.536670000000     0          
O1490    O      0.963330000000     0.036670000000     0.036670000000     0          
O1491    O      0.963330000000     0.463330000000     0.463330000000     0          
O1493    O      0.036670000000     0.536670000000     0.463330000000     0          
O1494    O      0.036670000000     0.036670000000     0.963330000000     0          
O1495    O      0.036670000000     0.463330000000     0.536670000000     0          
O1496    O      0.036670000000     0.963330000000     0.036670000000     0          
C1497    C      0.404610000000     0.500000000000     0.904610000000     0          
C1498    C      0.372120000000     0.500000000000     0.872120000000     0          
C1499    C      0.312600000000     0.500000000000     0.812600000000     0          
C1500    C      0.279600000000     0.500000000000     0.779600000000     0          
C1501    C      0.404610000000     0.000000000000     0.404610000000     0          
C1502    C      0.372120000000     0.000000000000     0.372120000000     0          
C1503    C      0.312600000000     0.000000000000     0.312600000000     0          
C1504    C      0.279600000000     0.000000000000     0.279600000000     0          
C1505    C      0.595390000000     0.500000000000     0.904610000000     0          
C1506    C      0.627880000000     0.500000000000     0.872120000000     0          
C1507    C      0.687400000000     0.500000000000     0.812600000000     0          
C1508    C      0.720400000000     0.500000000000     0.779600000000     0          
C1509    C      0.595390000000     0.000000000000     0.404610000000     0          
C1510    C      0.627880000000     0.000000000000     0.372120000000     0          
C1511    C      0.687400000000     0.000000000000     0.312600000000     0          
C1512    C      0.720400000000     0.000000000000     0.279600000000     0          
C1513    C      0.595390000000     0.500000000000     0.095390000000     0          
C1514    C      0.627880000000     0.500000000000     0.127880000000     0          
C1515    C      0.687400000000     0.500000000000     0.187400000000     0          
C1516    C      0.720400000000     0.500000000000     0.220400000000     0          
C1517    C      0.595390000000     0.000000000000     0.595390000000     0          
C1518    C      0.627880000000     0.000000000000     0.627880000000     0          
C1519    C      0.687400000000     0.000000000000     0.687400000000     0          
C1520    C      0.720400000000     0.000000000000     0.720400000000     0          
C1521    C      0.404610000000     0.500000000000     0.095390000000     0          
C1522    C      0.372120000000     0.500000000000     0.127880000000     0          
C1523    C      0.312600000000     0.500000000000     0.187400000000     0          
C1524    C      0.279600000000     0.500000000000     0.220400000000     0          
C1525    C      0.404610000000     0.000000000000     0.595390000000     0          
C1526    C      0.372120000000     0.000000000000     0.627880000000     0          
C1527    C      0.312600000000     0.000000000000     0.687400000000     0          
C1528    C      0.279600000000     0.000000000000     0.720400000000     0          
C1529    C      0.904610000000     0.404610000000     0.500000000000     0          
C1530    C      0.872120000000     0.372120000000     0.500000000000     0          
C1531    C      0.812600000000     0.312600000000     0.500000000000     0          
C1532    C      0.779600000000     0.279600000000     0.500000000000     0          
C1533    C      0.904610000000     0.904610000000     0.000000000000     0          
C1534    C      0.872120000000     0.872120000000     0.000000000000     0          
C1535    C      0.812600000000     0.812600000000     0.000000000000     0          
C1536    C      0.779600000000     0.779600000000     0.000000000000     0          
C1537    C      0.904610000000     0.595390000000     0.500000000000     0          
C1538    C      0.872120000000     0.627880000000     0.500000000000     0          
C1539    C      0.812600000000     0.687400000000     0.500000000000     0          
C1540    C      0.779600000000     0.720400000000     0.500000000000     0          
C1541    C      0.904610000000     0.095390000000     0.000000000000     0          
C1542    C      0.872120000000     0.127880000000     0.000000000000     0          
C1543    C      0.812600000000     0.187400000000     0.000000000000     0          
C1544    C      0.779600000000     0.220400000000     0.000000000000     0          
C1545    C      0.095390000000     0.595390000000     0.500000000000     0          
C1546    C      0.127880000000     0.627880000000     0.500000000000     0          
C1547    C      0.187400000000     0.687400000000     0.500000000000     0          
C1548    C      0.220400000000     0.720400000000     0.500000000000     0          
C1549    C      0.095390000000     0.095390000000     0.000000000000     0          
C1550    C      0.127880000000     0.127880000000     0.000000000000     0          
C1551    C      0.187400000000     0.187400000000     0.000000000000     0          
C1552    C      0.220400000000     0.220400000000     0.000000000000     0          
C1553    C      0.095390000000     0.404610000000     0.500000000000     0          
C1554    C      0.127880000000     0.372120000000     0.500000000000     0          
C1555    C      0.187400000000     0.312600000000     0.500000000000     0          
C1556    C      0.220400000000     0.279600000000     0.500000000000     0          
C1557    C      0.095390000000     0.904610000000     0.000000000000     0          
C1558    C      0.127880000000     0.872120000000     0.000000000000     0          
C1559    C      0.187400000000     0.812600000000     0.000000000000     0          
C1560    C      0.220400000000     0.779600000000     0.000000000000     0          
C1561    C      0.500000000000     0.904610000000     0.404610000000     0          
C1562    C      0.500000000000     0.872120000000     0.372120000000     0          
C1563    C      0.500000000000     0.812600000000     0.312600000000     0          
C1564    C      0.500000000000     0.779600000000     0.279600000000     0          
C1565    C      0.000000000000     0.904610000000     0.904610000000     0          
C1566    C      0.000000000000     0.872120000000     0.872120000000     0          
C1567    C      0.000000000000     0.812600000000     0.812600000000     0          
C1568    C      0.000000000000     0.779600000000     0.779600000000     0          
C1569    C      0.500000000000     0.904610000000     0.595390000000     0          
C1570    C      0.500000000000     0.872120000000     0.627880000000     0          
C1571    C      0.500000000000     0.812600000000     0.687400000000     0          
C1572    C      0.500000000000     0.779600000000     0.720400000000     0          
C1573    C      0.000000000000     0.904610000000     0.095390000000     0          
C1574    C      0.000000000000     0.872120000000     0.127880000000     0          
C1575    C      0.000000000000     0.812600000000     0.187400000000     0          
C1576    C      0.000000000000     0.779600000000     0.220400000000     0          
C1577    C      0.500000000000     0.095390000000     0.595390000000     0          
C1578    C      0.500000000000     0.127880000000     0.627880000000     0          
C1579    C      0.500000000000     0.187400000000     0.687400000000     0          
C1580    C      0.500000000000     0.220400000000     0.720400000000     0          
C1581    C      0.000000000000     0.095390000000     0.095390000000     0          
C1582    C      0.000000000000     0.127880000000     0.127880000000     0          
C1583    C      0.000000000000     0.187400000000     0.187400000000     0          
C1584    C      0.000000000000     0.220400000000     0.220400000000     0          
C1585    C      0.500000000000     0.095390000000     0.404610000000     0          
C1586    C      0.500000000000     0.127880000000     0.372120000000     0          
C1587    C      0.500000000000     0.187400000000     0.312600000000     0          
C1588    C      0.500000000000     0.220400000000     0.279600000000     0          
C1589    C      0.000000000000     0.095390000000     0.904610000000     0          
C1590    C      0.000000000000     0.127880000000     0.872120000000     0          
C1591    C      0.000000000000     0.187400000000     0.812600000000     0          
C1592    C      0.000000000000     0.220400000000     0.779600000000     0          
C1593    C      0.500000000000     0.404610000000     0.095390000000     0          
C1594    C      0.500000000000     0.372120000000     0.127880000000     0          
C1595    C      0.500000000000     0.312600000000     0.187400000000     0          
C1596    C      0.500000000000     0.279600000000     0.220400000000     0          
C1597    C      0.000000000000     0.404610000000     0.595390000000     0          
C1598    C      0.000000000000     0.372120000000     0.627880000000     0          
C1599    C      0.000000000000     0.312600000000     0.687400000000     0          
C1600    C      0.000000000000     0.279600000000     0.720400000000     0          
C1601    C      0.500000000000     0.595390000000     0.095390000000     0          
C1602    C      0.500000000000     0.627880000000     0.127880000000     0          
C1603    C      0.500000000000     0.687400000000     0.187400000000     0          
C1604    C      0.500000000000     0.720400000000     0.220400000000     0          
C1605    C      0.000000000000     0.595390000000     0.595390000000     0          
C1606    C      0.000000000000     0.627880000000     0.627880000000     0          
C1607    C      0.000000000000     0.687400000000     0.687400000000     0          
C1608    C      0.000000000000     0.720400000000     0.720400000000     0          
C1609    C      0.500000000000     0.595390000000     0.904610000000     0          
C1610    C      0.500000000000     0.627880000000     0.872120000000     0          
C1611    C      0.500000000000     0.687400000000     0.812600000000     0          
C1612    C      0.500000000000     0.720400000000     0.779600000000     0          
C1613    C      0.000000000000     0.595390000000     0.404610000000     0          
C1614    C      0.000000000000     0.627880000000     0.372120000000     0          
C1615    C      0.000000000000     0.687400000000     0.312600000000     0          
C1616    C      0.000000000000     0.720400000000     0.279600000000     0          
C1617    C      0.500000000000     0.404610000000     0.904610000000     0          
C1618    C      0.500000000000     0.372120000000     0.872120000000     0          
C1619    C      0.500000000000     0.312600000000     0.812600000000     0          
C1620    C      0.500000000000     0.279600000000     0.779600000000     0          
C1621    C      0.000000000000     0.404610000000     0.404610000000     0          
C1622    C      0.000000000000     0.372120000000     0.372120000000     0          
C1623    C      0.000000000000     0.312600000000     0.312600000000     0          
C1624    C      0.000000000000     0.279600000000     0.279600000000     0          
C1625    C      0.404610000000     0.904610000000     0.500000000000     0          
C1626    C      0.372120000000     0.872120000000     0.500000000000     0          
C1627    C      0.312600000000     0.812600000000     0.500000000000     0          
C1628    C      0.279600000000     0.779600000000     0.500000000000     0          
C1629    C      0.404610000000     0.404610000000     0.000000000000     0          
C1630    C      0.372120000000     0.372120000000     0.000000000000     0          
C1631    C      0.312600000000     0.312600000000     0.000000000000     0          
C1632    C      0.279600000000     0.279600000000     0.000000000000     0          
C1633    C      0.595390000000     0.904610000000     0.500000000000     0          
C1634    C      0.627880000000     0.872120000000     0.500000000000     0          
C1635    C      0.687400000000     0.812600000000     0.500000000000     0          
C1636    C      0.720400000000     0.779600000000     0.500000000000     0          
C1637    C      0.595390000000     0.404610000000     0.000000000000     0          
C1638    C      0.627880000000     0.372120000000     0.000000000000     0          
C1639    C      0.687400000000     0.312600000000     0.000000000000     0          
C1640    C      0.720400000000     0.279600000000     0.000000000000     0          
C1641    C      0.595390000000     0.095390000000     0.500000000000     0          
C1642    C      0.627880000000     0.127880000000     0.500000000000     0          
C1643    C      0.687400000000     0.187400000000     0.500000000000     0          
C1644    C      0.720400000000     0.220400000000     0.500000000000     0          
C1645    C      0.595390000000     0.595390000000     0.000000000000     0          
C1646    C      0.627880000000     0.627880000000     0.000000000000     0          
C1647    C      0.687400000000     0.687400000000     0.000000000000     0          
C1648    C      0.720400000000     0.720400000000     0.000000000000     0          
C1649    C      0.404610000000     0.095390000000     0.500000000000     0          
C1650    C      0.372120000000     0.127880000000     0.500000000000     0          
C1651    C      0.312600000000     0.187400000000     0.500000000000     0          
C1652    C      0.279600000000     0.220400000000     0.500000000000     0          
C1653    C      0.404610000000     0.595390000000     0.000000000000     0          
C1654    C      0.372120000000     0.627880000000     0.000000000000     0          
C1655    C      0.312600000000     0.687400000000     0.000000000000     0          
C1656    C      0.279600000000     0.720400000000     0.000000000000     0          
C1657    C      0.904610000000     0.500000000000     0.595390000000     0          
C1658    C      0.872120000000     0.500000000000     0.627880000000     0          
C1659    C      0.812600000000     0.500000000000     0.687400000000     0          
C1660    C      0.779600000000     0.500000000000     0.720400000000     0          
C1661    C      0.904610000000     0.000000000000     0.095390000000     0          
C1662    C      0.872120000000     0.000000000000     0.127880000000     0          
C1663    C      0.812600000000     0.000000000000     0.187400000000     0          
C1664    C      0.779600000000     0.000000000000     0.220400000000     0          
C1665    C      0.904610000000     0.500000000000     0.404610000000     0          
C1666    C      0.872120000000     0.500000000000     0.372120000000     0          
C1667    C      0.812600000000     0.500000000000     0.312600000000     0          
C1668    C      0.779600000000     0.500000000000     0.279600000000     0          
C1669    C      0.904610000000     0.000000000000     0.904610000000     0          
C1670    C      0.872120000000     0.000000000000     0.872120000000     0          
C1671    C      0.812600000000     0.000000000000     0.812600000000     0          
C1672    C      0.779600000000     0.000000000000     0.779600000000     0          
C1673    C      0.095390000000     0.500000000000     0.404610000000     0          
C1674    C      0.127880000000     0.500000000000     0.372120000000     0          
C1675    C      0.187400000000     0.500000000000     0.312600000000     0          
C1676    C      0.220400000000     0.500000000000     0.279600000000     0          
C1677    C      0.095390000000     0.000000000000     0.904610000000     0          
C1678    C      0.127880000000     0.000000000000     0.872120000000     0          
C1679    C      0.187400000000     0.000000000000     0.812600000000     0          
C1680    C      0.220400000000     0.000000000000     0.779600000000     0          
C1681    C      0.095390000000     0.500000000000     0.595390000000     0          
C1682    C      0.127880000000     0.500000000000     0.627880000000     0          
C1683    C      0.187400000000     0.500000000000     0.687400000000     0          
C1684    C      0.220400000000     0.500000000000     0.720400000000     0          
C1685    C      0.095390000000     0.000000000000     0.095390000000     0          
C1686    C      0.127880000000     0.000000000000     0.127880000000     0          
C1687    C      0.187400000000     0.000000000000     0.187400000000     0          
C1688    C      0.220400000000     0.000000000000     0.220400000000     0          
C1689    C      0.264800000000     0.535350000000     0.764800000000     0          
C1691    C      0.264800000000     0.035350000000     0.264800000000     0          
C1693    C      0.764800000000     0.035350000000     0.764800000000     0          
C1695    C      0.735200000000     0.464650000000     0.764800000000     0          
C1697    C      0.735200000000     0.964650000000     0.264800000000     0          
C1699    C      0.735200000000     0.535350000000     0.235200000000     0          
C1700    C      0.721600000000     0.578570000000     0.221600000000     0          
C1701    C      0.735200000000     0.035350000000     0.735200000000     0          
C1702    C      0.721600000000     0.078570000000     0.721600000000     0          
C1703    C      0.264800000000     0.464650000000     0.235200000000     0          
C1704    C      0.278400000000     0.421430000000     0.221600000000     0          
C1705    C      0.264800000000     0.964650000000     0.735200000000     0          
C1706    C      0.278400000000     0.921430000000     0.721600000000     0          
C1707    C      0.764800000000     0.464650000000     0.735200000000     0          
C1708    C      0.778400000000     0.421430000000     0.721600000000     0          
C1709    C      0.764800000000     0.264800000000     0.535350000000     0          
C1711    C      0.764800000000     0.764800000000     0.035350000000     0          
C1713    C      0.764800000000     0.735200000000     0.464650000000     0          
C1714    C      0.778400000000     0.721600000000     0.421430000000     0          
C1715    C      0.764800000000     0.235200000000     0.964650000000     0          
C1716    C      0.778400000000     0.221600000000     0.921430000000     0          
C1717    C      0.235200000000     0.735200000000     0.535350000000     0          
C1718    C      0.221600000000     0.721600000000     0.578570000000     0          
C1719    C      0.235200000000     0.235200000000     0.035350000000     0          
C1720    C      0.221600000000     0.221600000000     0.078570000000     0          
C1721    C      0.735200000000     0.735200000000     0.035350000000     0          
C1722    C      0.721600000000     0.721600000000     0.078570000000     0          
C1723    C      0.235200000000     0.264800000000     0.464650000000     0          
C1725    C      0.235200000000     0.764800000000     0.964650000000     0          
C1727    C      0.735200000000     0.764800000000     0.464650000000     0          
C1729    C      0.535350000000     0.764800000000     0.264800000000     0          
C1731    C      0.035350000000     0.764800000000     0.764800000000     0          
C1733    C      0.464650000000     0.764800000000     0.735200000000     0          
C1734    C      0.421430000000     0.778400000000     0.721600000000     0          
C1735    C      0.964650000000     0.764800000000     0.235200000000     0          
C1736    C      0.921430000000     0.778400000000     0.221600000000     0          
C1737    C      0.535350000000     0.235200000000     0.735200000000     0          
C1738    C      0.578570000000     0.221600000000     0.721600000000     0          
C1739    C      0.035350000000     0.235200000000     0.235200000000     0          
C1740    C      0.078570000000     0.221600000000     0.221600000000     0          
C1741    C      0.035350000000     0.735200000000     0.735200000000     0          
C1742    C      0.078570000000     0.721600000000     0.721600000000     0          
C1743    C      0.464650000000     0.235200000000     0.264800000000     0          
C1745    C      0.464650000000     0.735200000000     0.764800000000     0          
C1747    C      0.964650000000     0.235200000000     0.764800000000     0          
C1749    C      0.535350000000     0.264800000000     0.235200000000     0          
C1751    C      0.535350000000     0.764800000000     0.735200000000     0          
C1753    C      0.035350000000     0.264800000000     0.735200000000     0          
C1755    C      0.464650000000     0.735200000000     0.235200000000     0          
C1757    C      0.964650000000     0.735200000000     0.735200000000     0          
C1759    C      0.535350000000     0.735200000000     0.764800000000     0          
C1760    C      0.578570000000     0.721600000000     0.778400000000     0          
C1761    C      0.035350000000     0.735200000000     0.264800000000     0          
C1762    C      0.078570000000     0.721600000000     0.278400000000     0          
C1763    C      0.464650000000     0.264800000000     0.764800000000     0          
C1764    C      0.421430000000     0.278400000000     0.778400000000     0          
C1765    C      0.964650000000     0.264800000000     0.264800000000     0          
C1766    C      0.921430000000     0.278400000000     0.278400000000     0          
C1767    C      0.964650000000     0.764800000000     0.764800000000     0          
C1768    C      0.921430000000     0.778400000000     0.778400000000     0          
C1769    C      0.264800000000     0.764800000000     0.464650000000     0          
C1770    C      0.278400000000     0.778400000000     0.421430000000     0          
C1771    C      0.264800000000     0.264800000000     0.964650000000     0          
C1772    C      0.278400000000     0.278400000000     0.921430000000     0          
C1773    C      0.764800000000     0.764800000000     0.964650000000     0          
C1774    C      0.778400000000     0.778400000000     0.921430000000     0          
C1775    C      0.735200000000     0.764800000000     0.535350000000     0          
C1776    C      0.721600000000     0.778400000000     0.578570000000     0          
C1777    C      0.735200000000     0.264800000000     0.035350000000     0          
C1778    C      0.721600000000     0.278400000000     0.078570000000     0          
C1779    C      0.735200000000     0.235200000000     0.464650000000     0          
C1781    C      0.735200000000     0.735200000000     0.964650000000     0          
C1783    C      0.264800000000     0.235200000000     0.535350000000     0          
C1785    C      0.264800000000     0.735200000000     0.035350000000     0          
C1787    C      0.764800000000     0.735200000000     0.535350000000     0          
C1789    C      0.764800000000     0.535350000000     0.735200000000     0          
C1791    C      0.764800000000     0.035350000000     0.235200000000     0          
C1793    C      0.764800000000     0.464650000000     0.264800000000     0          
C1794    C      0.778400000000     0.421430000000     0.278400000000     0          
C1795    C      0.764800000000     0.964650000000     0.764800000000     0          
C1796    C      0.778400000000     0.921430000000     0.778400000000     0          
C1797    C      0.235200000000     0.535350000000     0.264800000000     0          
C1798    C      0.221600000000     0.578570000000     0.278400000000     0          
C1799    C      0.235200000000     0.035350000000     0.764800000000     0          
C1800    C      0.221600000000     0.078570000000     0.778400000000     0          
C1801    C      0.735200000000     0.535350000000     0.764800000000     0          
C1802    C      0.721600000000     0.578570000000     0.778400000000     0          
C1803    C      0.235200000000     0.464650000000     0.735200000000     0          
C1805    C      0.235200000000     0.964650000000     0.235200000000     0          
C1807    C      0.735200000000     0.964650000000     0.735200000000     0          
C1809    C      0.735200000000     0.464650000000     0.235200000000     0          
C1811    C      0.264800000000     0.535350000000     0.235200000000     0          
C1813    C      0.264800000000     0.035350000000     0.735200000000     0          
C1815    C      0.264800000000     0.464650000000     0.764800000000     0          
C1816    C      0.278400000000     0.421430000000     0.778400000000     0          
C1817    C      0.264800000000     0.964650000000     0.264800000000     0          
C1818    C      0.278400000000     0.921430000000     0.278400000000     0          
C1819    C      0.735200000000     0.035350000000     0.264800000000     0          
C1820    C      0.721600000000     0.078570000000     0.278400000000     0          
C1821    C      0.235200000000     0.735200000000     0.464650000000     0          
C1823    C      0.235200000000     0.235200000000     0.964650000000     0          
C1825    C      0.235200000000     0.264800000000     0.535350000000     0          
C1826    C      0.221600000000     0.278400000000     0.578570000000     0          
C1827    C      0.235200000000     0.764800000000     0.035350000000     0          
C1828    C      0.221600000000     0.778400000000     0.078570000000     0          
C1829    C      0.764800000000     0.264800000000     0.464650000000     0          
C1830    C      0.778400000000     0.278400000000     0.421430000000     0          
C1831    C      0.764800000000     0.235200000000     0.035350000000     0          
C1833    C      0.464650000000     0.235200000000     0.735200000000     0          
C1835    C      0.964650000000     0.235200000000     0.235200000000     0          
C1837    C      0.535350000000     0.235200000000     0.264800000000     0          
C1838    C      0.578570000000     0.221600000000     0.278400000000     0          
C1839    C      0.035350000000     0.235200000000     0.764800000000     0          
C1840    C      0.078570000000     0.221600000000     0.778400000000     0          
C1841    C      0.464650000000     0.764800000000     0.264800000000     0          
C1842    C      0.421430000000     0.778400000000     0.278400000000     0          
C1843    C      0.035350000000     0.764800000000     0.235200000000     0          
C1845    C      0.964650000000     0.735200000000     0.264800000000     0          
C1847    C      0.535350000000     0.264800000000     0.764800000000     0          
C1849    C      0.035350000000     0.264800000000     0.264800000000     0          
C1851    C      0.464650000000     0.264800000000     0.235200000000     0          
C1852    C      0.421430000000     0.278400000000     0.221600000000     0          
C1853    C      0.964650000000     0.264800000000     0.735200000000     0          
C1854    C      0.921430000000     0.278400000000     0.721600000000     0          
C1855    C      0.535350000000     0.735200000000     0.235200000000     0          
C1856    C      0.578570000000     0.721600000000     0.221600000000     0          
C1857    C      0.735200000000     0.235200000000     0.535350000000     0          
C1858    C      0.721600000000     0.221600000000     0.578570000000     0          
C1859    C      0.264800000000     0.235200000000     0.464650000000     0          
C1860    C      0.278400000000     0.221600000000     0.421430000000     0          
C1861    C      0.264800000000     0.735200000000     0.964650000000     0          
C1862    C      0.278400000000     0.721600000000     0.921430000000     0          
C1863    C      0.264800000000     0.764800000000     0.535350000000     0          
C1865    C      0.264800000000     0.264800000000     0.035350000000     0          
C1867    C      0.735200000000     0.264800000000     0.964650000000     0          
C1869    C      0.235200000000     0.464650000000     0.264800000000     0          
C1871    C      0.235200000000     0.964650000000     0.764800000000     0          
C1873    C      0.235200000000     0.535350000000     0.735200000000     0          
C1874    C      0.221600000000     0.578570000000     0.721600000000     0          
C1875    C      0.235200000000     0.035350000000     0.235200000000     0          
C1876    C      0.221600000000     0.078570000000     0.221600000000     0          
C1877    C      0.764800000000     0.964650000000     0.235200000000     0          
C1878    C      0.778400000000     0.921430000000     0.221600000000     0          
C1879    C      0.764800000000     0.535350000000     0.264800000000     0          
O1470    O      0.963330000000     0.963330000000     0.036670000000     0          
O1472    O      0.963330000000     0.036670000000     0.963330000000     0          
O1476    O      0.036670000000     0.963330000000     0.963330000000     0          
O1492    O      0.963330000000     0.963330000000     0.963330000000     0          
H553     H      0.799210000000     0.409740000000     0.255160000000     0          
H554     H      0.299210000000     0.409740000000     0.755160000000     0          
H543     H      0.747700000000     0.947940000000     0.709230000000     0          
H544     H      0.790770000000     0.052060000000     0.752300000000     0          
H545     H      0.747700000000     0.447940000000     0.209230000000     0          
H548     H      0.790770000000     0.552060000000     0.252300000000     0          
H549     H      0.247700000000     0.447940000000     0.709230000000     0          
H550     H      0.290770000000     0.552060000000     0.752300000000     0          
H555     H      0.744840000000     0.590260000000     0.200790000000     0          
H558     H      0.244840000000     0.590260000000     0.700790000000     0          
H535     H      0.247700000000     0.947940000000     0.209230000000     0          
H537     H      0.290770000000     0.052060000000     0.252300000000     0          
H538     H      0.249480000000     0.090310000000     0.207660000000     0          
H539     H      0.292340000000     0.909690000000     0.250520000000     0          
H515     H      0.749480000000     0.792340000000     0.590310000000     0          
H518     H      0.747700000000     0.790770000000     0.447940000000     0          
H519     H      0.790770000000     0.747700000000     0.552060000000     0          
H520     H      0.292340000000     0.249480000000     0.409690000000     0          
H521     H      0.792340000000     0.749480000000     0.409690000000     0          
H522     H      0.249480000000     0.292340000000     0.590310000000     0          
H523     H      0.290770000000     0.247700000000     0.552060000000     0          
H524     H      0.247700000000     0.290770000000     0.447940000000     0          
H513     H      0.747700000000     0.290770000000     0.947940000000     0          
H514     H      0.790770000000     0.247700000000     0.052060000000     0          
H503     H      0.247700000000     0.790770000000     0.947940000000     0          
H504     H      0.290770000000     0.747700000000     0.052060000000     0          
H490     H      0.052060000000     0.790770000000     0.247700000000     0          
H491     H      0.947940000000     0.747700000000     0.290770000000     0          
H492     H      0.910170000000     0.791000000000     0.250310000000     0          
H469     H      0.552060000000     0.790770000000     0.747700000000     0          
H470     H      0.447940000000     0.747700000000     0.790770000000     0          
H471     H      0.447940000000     0.247700000000     0.290770000000     0          
H472     H      0.552060000000     0.290770000000     0.247700000000     0          
H459     H      0.910170000000     0.291000000000     0.750310000000     0          
H460     H      0.089830000000     0.250310000000     0.791000000000     0          
H461     H      0.052060000000     0.290770000000     0.747700000000     0          
H462     H      0.947940000000     0.247700000000     0.790770000000     0          
H435     H      0.209230000000     0.447940000000     0.252300000000     0          
H437     H      0.252300000000     0.552060000000     0.209230000000     0          
H438     H      0.200790000000     0.590260000000     0.255160000000     0          
H439     H      0.255160000000     0.409740000000     0.200790000000     0          
H440     H      0.755160000000     0.409740000000     0.700790000000     0          
H442     H      0.700790000000     0.590260000000     0.755160000000     0          
H443     H      0.752300000000     0.552060000000     0.709230000000     0          
H444     H      0.709230000000     0.447940000000     0.752300000000     0          
H429     H      0.200790000000     0.090260000000     0.755160000000     0          
H430     H      0.255160000000     0.909740000000     0.700790000000     0          
H432     H      0.209230000000     0.947940000000     0.752300000000     0          
H433     H      0.252300000000     0.052060000000     0.709230000000     0          
H419     H      0.755160000000     0.909740000000     0.200790000000     0          
H420     H      0.700790000000     0.090260000000     0.255160000000     0          
H422     H      0.709230000000     0.947940000000     0.252300000000     0          
H423     H      0.752300000000     0.052060000000     0.209230000000     0          
H397     H      0.552060000000     0.252300000000     0.790770000000     0          
H398     H      0.447940000000     0.209230000000     0.747700000000     0          
H399     H      0.552060000000     0.752300000000     0.290770000000     0          
H400     H      0.447940000000     0.709230000000     0.247700000000     0          
H401     H      0.409740000000     0.755160000000     0.299210000000     0          
H402     H      0.409740000000     0.255160000000     0.799210000000     0          
H403     H      0.590310000000     0.207660000000     0.749480000000     0          
H404     H      0.590310000000     0.707660000000     0.249480000000     0          
H391     H      0.909740000000     0.255160000000     0.299210000000     0          
H392     H      0.090260000000     0.200790000000     0.244840000000     0          
H393     H      0.052060000000     0.252300000000     0.290770000000     0          
H394     H      0.947940000000     0.209230000000     0.247700000000     0          
H381     H      0.909740000000     0.755160000000     0.799210000000     0          
H382     H      0.090260000000     0.700790000000     0.744840000000     0          
H383     H      0.052060000000     0.752300000000     0.790770000000     0          
H384     H      0.947940000000     0.709230000000     0.747700000000     0          
H357     H      0.255160000000     0.799210000000     0.409740000000     0          
H358     H      0.755160000000     0.299210000000     0.409740000000     0          
H361     H      0.252300000000     0.790770000000     0.552060000000     0          
H362     H      0.209230000000     0.747700000000     0.447940000000     0          
H363     H      0.709230000000     0.247700000000     0.447940000000     0          
H364     H      0.752300000000     0.290770000000     0.552060000000     0          
H365     H      0.200790000000     0.744840000000     0.590260000000     0          
H368     H      0.700790000000     0.244840000000     0.590260000000     0          
H351     H      0.752300000000     0.790770000000     0.052060000000     0          
H353     H      0.709230000000     0.747700000000     0.947940000000     0          
H354     H      0.700790000000     0.744840000000     0.090260000000     0          
H355     H      0.755160000000     0.799210000000     0.909740000000     0          
H342     H      0.200790000000     0.244840000000     0.090260000000     0          
H343     H      0.255160000000     0.299210000000     0.909740000000     0          
H344     H      0.252300000000     0.290770000000     0.052060000000     0          
H345     H      0.209230000000     0.247700000000     0.947940000000     0          
H338     H      0.750310000000     0.089830000000     0.709000000000     0          
H339     H      0.791000000000     0.910170000000     0.749700000000     0          


