data_YIRQOI

_audit_creation_method RASPA-1.0
_audit_creation_date 2020-11-2
_audit_author_name 'Rocio Bueno-Perez'

_cell_length_a    29.961
_cell_length_b    30.892
_cell_length_c    14.1135
_cell_angle_alpha 90
_cell_angle_beta  90
_cell_angle_gamma 90
_cell_volume      13062.8

_symmetry_cell_setting          orthorhombic
_symmetry_space_group_name_Hall 'P 1'
_symmetry_space_group_name_H-M  'P 1'
_symmetry_Int_Tables_number     1

_symmetry_equiv_pos_as_xyz 'x,y,z'

loop_
_atom_site_label
_atom_site_type_symbol
_atom_site_fract_x
_atom_site_fract_y
_atom_site_fract_z
_atom_site_charge
O2       O      0.433000000000     0.079980000000     0.826200000000     0          
O3       O      0.379800000000     0.043850000000     0.905800000000     0          
C1       C      0.393460000000     0.074190000000     0.853700000000     0          
C2       C      0.359830000000     0.107330000000     0.821800000000     0          
C3       C      0.316620000000     0.107280000000     0.856900000000     0          
H3       H      0.306800000000     0.084400000000     0.896800000000     0          
C4       C      0.287710000000     0.140690000000     0.833700000000     0          
H4       H      0.258300000000     0.140800000000     0.858800000000     0          
C5       C      0.301420000000     0.174200000000     0.773500000000     0          
C6       C      0.344760000000     0.173300000000     0.738100000000     0          
H5       H      0.354600000000     0.195700000000     0.697100000000     0          
C7       C      0.373540000000     0.140140000000     0.761900000000     0          
H6       H      0.403000000000     0.139900000000     0.737000000000     0          
C8       C      0.273260000000     0.212420000000     0.755100000000     0          
Zr1      Zr     0.417790000000     0.000000000000     0.000000000000     0          
Zr2      Zr     0.500000000000     0.057150000000     0.874870000000     0          
O1       O      0.459750000000     0.057700000000     0.000000000000     0          
O5       O      0.460230000000     0.000000000000     0.875500000000     0          
N1       N      0.295670000000     0.250000000000     0.750000000000     0          
O2       O      0.567000000000     0.920020000000     0.826200000000     0          
O3       O      0.620200000000     0.956150000000     0.905800000000     0          
C1       C      0.606540000000     0.925810000000     0.853700000000     0          
C2       C      0.640170000000     0.892670000000     0.821800000000     0          
C3       C      0.683380000000     0.892720000000     0.856900000000     0          
H3       H      0.693200000000     0.915600000000     0.896800000000     0          
C4       C      0.712290000000     0.859310000000     0.833700000000     0          
H4       H      0.741700000000     0.859200000000     0.858800000000     0          
C5       C      0.698580000000     0.825800000000     0.773500000000     0          
C6       C      0.655240000000     0.826700000000     0.738100000000     0          
H5       H      0.645400000000     0.804300000000     0.697100000000     0          
C7       C      0.626460000000     0.859860000000     0.761900000000     0          
H6       H      0.597000000000     0.860100000000     0.737000000000     0          
C8       C      0.726740000000     0.787580000000     0.755100000000     0          
Zr1      Zr     0.582210000000     0.000000000000     0.000000000000     0          
Zr2      Zr     0.500000000000     0.942850000000     0.874870000000     0          
O1       O      0.540250000000     0.942300000000     0.000000000000     0          
O5       O      0.539770000000     0.000000000000     0.875500000000     0          
N1       N      0.704330000000     0.750000000000     0.750000000000     0          
O2       O      0.433000000000     0.920020000000     0.173800000000     0          
O3       O      0.379800000000     0.956150000000     0.094200000000     0          
C1       C      0.393460000000     0.925810000000     0.146300000000     0          
C2       C      0.359830000000     0.892670000000     0.178200000000     0          
C3       C      0.316620000000     0.892720000000     0.143100000000     0          
H3       H      0.306800000000     0.915600000000     0.103200000000     0          
C4       C      0.287710000000     0.859310000000     0.166300000000     0          
H4       H      0.258300000000     0.859200000000     0.141200000000     0          
C5       C      0.301420000000     0.825800000000     0.226500000000     0          
C6       C      0.344760000000     0.826700000000     0.261900000000     0          
H5       H      0.354600000000     0.804300000000     0.302900000000     0          
C7       C      0.373540000000     0.859860000000     0.238100000000     0          
H6       H      0.403000000000     0.860100000000     0.263000000000     0          
C8       C      0.273260000000     0.787580000000     0.244900000000     0          
Zr2      Zr     0.500000000000     0.942850000000     0.125130000000     0          
O1       O      0.459750000000     0.942300000000     0.000000000000     0          
O5       O      0.460230000000     0.000000000000     0.124500000000     0          
N1       N      0.295670000000     0.750000000000     0.250000000000     0          
O2       O      0.567000000000     0.079980000000     0.173800000000     0          
O3       O      0.620200000000     0.043850000000     0.094200000000     0          
C1       C      0.606540000000     0.074190000000     0.146300000000     0          
C2       C      0.640170000000     0.107330000000     0.178200000000     0          
C3       C      0.683380000000     0.107280000000     0.143100000000     0          
H3       H      0.693200000000     0.084400000000     0.103200000000     0          
C4       C      0.712290000000     0.140690000000     0.166300000000     0          
H4       H      0.741700000000     0.140800000000     0.141200000000     0          
C5       C      0.698580000000     0.174200000000     0.226500000000     0          
C6       C      0.655240000000     0.173300000000     0.261900000000     0          
H5       H      0.645400000000     0.195700000000     0.302900000000     0          
C7       C      0.626460000000     0.140140000000     0.238100000000     0          
H6       H      0.597000000000     0.139900000000     0.263000000000     0          
C8       C      0.726740000000     0.212420000000     0.244900000000     0          
Zr2      Zr     0.500000000000     0.057150000000     0.125130000000     0          
O1       O      0.540250000000     0.057700000000     0.000000000000     0          
O5       O      0.539770000000     0.000000000000     0.124500000000     0          
N1       N      0.704330000000     0.250000000000     0.250000000000     0          
O2       O      0.567000000000     0.920020000000     0.173800000000     0          
O3       O      0.620200000000     0.956150000000     0.094200000000     0          
C1       C      0.606540000000     0.925810000000     0.146300000000     0          
C2       C      0.640170000000     0.892670000000     0.178200000000     0          
C3       C      0.683380000000     0.892720000000     0.143100000000     0          
H3       H      0.693200000000     0.915600000000     0.103200000000     0          
C4       C      0.712290000000     0.859310000000     0.166300000000     0          
H4       H      0.741700000000     0.859200000000     0.141200000000     0          
C5       C      0.698580000000     0.825800000000     0.226500000000     0          
C6       C      0.655240000000     0.826700000000     0.261900000000     0          
H5       H      0.645400000000     0.804300000000     0.302900000000     0          
C7       C      0.626460000000     0.859860000000     0.238100000000     0          
H6       H      0.597000000000     0.860100000000     0.263000000000     0          
C8       C      0.726740000000     0.787580000000     0.244900000000     0          
N1       N      0.704330000000     0.750000000000     0.250000000000     0          
O2       O      0.433000000000     0.079980000000     0.173800000000     0          
O3       O      0.379800000000     0.043850000000     0.094200000000     0          
C1       C      0.393460000000     0.074190000000     0.146300000000     0          
C2       C      0.359830000000     0.107330000000     0.178200000000     0          
C3       C      0.316620000000     0.107280000000     0.143100000000     0          
H3       H      0.306800000000     0.084400000000     0.103200000000     0          
C4       C      0.287710000000     0.140690000000     0.166300000000     0          
H4       H      0.258300000000     0.140800000000     0.141200000000     0          
C5       C      0.301420000000     0.174200000000     0.226500000000     0          
C6       C      0.344760000000     0.173300000000     0.261900000000     0          
H5       H      0.354600000000     0.195700000000     0.302900000000     0          
C7       C      0.373540000000     0.140140000000     0.238100000000     0          
H6       H      0.403000000000     0.139900000000     0.263000000000     0          
C8       C      0.273260000000     0.212420000000     0.244900000000     0          
N1       N      0.295670000000     0.250000000000     0.250000000000     0          
O2       O      0.567000000000     0.079980000000     0.826200000000     0          
O3       O      0.620200000000     0.043850000000     0.905800000000     0          
C1       C      0.606540000000     0.074190000000     0.853700000000     0          
C2       C      0.640170000000     0.107330000000     0.821800000000     0          
C3       C      0.683380000000     0.107280000000     0.856900000000     0          
H3       H      0.693200000000     0.084400000000     0.896800000000     0          
C4       C      0.712290000000     0.140690000000     0.833700000000     0          
H4       H      0.741700000000     0.140800000000     0.858800000000     0          
C5       C      0.698580000000     0.174200000000     0.773500000000     0          
C6       C      0.655240000000     0.173300000000     0.738100000000     0          
H5       H      0.645400000000     0.195700000000     0.697100000000     0          
C7       C      0.626460000000     0.140140000000     0.761900000000     0          
H6       H      0.597000000000     0.139900000000     0.737000000000     0          
C8       C      0.726740000000     0.212420000000     0.755100000000     0          
N1       N      0.704330000000     0.250000000000     0.750000000000     0          
O2       O      0.433000000000     0.920020000000     0.826200000000     0          
O3       O      0.379800000000     0.956150000000     0.905800000000     0          
C1       C      0.393460000000     0.925810000000     0.853700000000     0          
C2       C      0.359830000000     0.892670000000     0.821800000000     0          
C3       C      0.316620000000     0.892720000000     0.856900000000     0          
H3       H      0.306800000000     0.915600000000     0.896800000000     0          
C4       C      0.287710000000     0.859310000000     0.833700000000     0          
H4       H      0.258300000000     0.859200000000     0.858800000000     0          
C5       C      0.301420000000     0.825800000000     0.773500000000     0          
C6       C      0.344760000000     0.826700000000     0.738100000000     0          
H5       H      0.354600000000     0.804300000000     0.697100000000     0          
C7       C      0.373540000000     0.859860000000     0.761900000000     0          
H6       H      0.403000000000     0.860100000000     0.737000000000     0          
C8       C      0.273260000000     0.787580000000     0.755100000000     0          
N1       N      0.295670000000     0.750000000000     0.750000000000     0          
O2       O      0.433000000000     0.579980000000     0.326200000000     0          
O3       O      0.379800000000     0.543850000000     0.405800000000     0          
C1       C      0.393460000000     0.574190000000     0.353700000000     0          
C2       C      0.359830000000     0.607330000000     0.321800000000     0          
C3       C      0.316620000000     0.607280000000     0.356900000000     0          
H3       H      0.306800000000     0.584400000000     0.396800000000     0          
C4       C      0.287710000000     0.640690000000     0.333700000000     0          
H4       H      0.258300000000     0.640800000000     0.358800000000     0          
C5       C      0.301420000000     0.674200000000     0.273500000000     0          
C6       C      0.344760000000     0.673300000000     0.238100000000     0          
H5       H      0.354600000000     0.695700000000     0.197100000000     0          
C7       C      0.373540000000     0.640140000000     0.261900000000     0          
H6       H      0.403000000000     0.639900000000     0.237000000000     0          
C8       C      0.273260000000     0.712420000000     0.255100000000     0          
Zr1      Zr     0.417790000000     0.500000000000     0.500000000000     0          
Zr2      Zr     0.500000000000     0.557150000000     0.374870000000     0          
O1       O      0.459750000000     0.557700000000     0.500000000000     0          
O5       O      0.460230000000     0.500000000000     0.375500000000     0          
O2       O      0.567000000000     0.420020000000     0.326200000000     0          
O3       O      0.620200000000     0.456150000000     0.405800000000     0          
C1       C      0.606540000000     0.425810000000     0.353700000000     0          
C2       C      0.640170000000     0.392670000000     0.321800000000     0          
C3       C      0.683380000000     0.392720000000     0.356900000000     0          
H3       H      0.693200000000     0.415600000000     0.396800000000     0          
C4       C      0.712290000000     0.359310000000     0.333700000000     0          
H4       H      0.741700000000     0.359200000000     0.358800000000     0          
C5       C      0.698580000000     0.325800000000     0.273500000000     0          
C6       C      0.655240000000     0.326700000000     0.238100000000     0          
H5       H      0.645400000000     0.304300000000     0.197100000000     0          
C7       C      0.626460000000     0.359860000000     0.261900000000     0          
H6       H      0.597000000000     0.360100000000     0.237000000000     0          
C8       C      0.726740000000     0.287580000000     0.255100000000     0          
Zr1      Zr     0.582210000000     0.500000000000     0.500000000000     0          
Zr2      Zr     0.500000000000     0.442850000000     0.374870000000     0          
O1       O      0.540250000000     0.442300000000     0.500000000000     0          
O5       O      0.539770000000     0.500000000000     0.375500000000     0          
O2       O      0.433000000000     0.420020000000     0.673800000000     0          
O3       O      0.379800000000     0.456150000000     0.594200000000     0          
C1       C      0.393460000000     0.425810000000     0.646300000000     0          
C2       C      0.359830000000     0.392670000000     0.678200000000     0          
C3       C      0.316620000000     0.392720000000     0.643100000000     0          
H3       H      0.306800000000     0.415600000000     0.603200000000     0          
C4       C      0.287710000000     0.359310000000     0.666300000000     0          
H4       H      0.258300000000     0.359200000000     0.641200000000     0          
C5       C      0.301420000000     0.325800000000     0.726500000000     0          
C6       C      0.344760000000     0.326700000000     0.761900000000     0          
H5       H      0.354600000000     0.304300000000     0.802900000000     0          
C7       C      0.373540000000     0.359860000000     0.738100000000     0          
H6       H      0.403000000000     0.360100000000     0.763000000000     0          
C8       C      0.273260000000     0.287580000000     0.744900000000     0          
Zr2      Zr     0.500000000000     0.442850000000     0.625130000000     0          
O1       O      0.459750000000     0.442300000000     0.500000000000     0          
O5       O      0.460230000000     0.500000000000     0.624500000000     0          
O2       O      0.567000000000     0.579980000000     0.673800000000     0          
O3       O      0.620200000000     0.543850000000     0.594200000000     0          
C1       C      0.606540000000     0.574190000000     0.646300000000     0          
C2       C      0.640170000000     0.607330000000     0.678200000000     0          
C3       C      0.683380000000     0.607280000000     0.643100000000     0          
H3       H      0.693200000000     0.584400000000     0.603200000000     0          
C4       C      0.712290000000     0.640690000000     0.666300000000     0          
H4       H      0.741700000000     0.640800000000     0.641200000000     0          
C5       C      0.698580000000     0.674200000000     0.726500000000     0          
C6       C      0.655240000000     0.673300000000     0.761900000000     0          
H5       H      0.645400000000     0.695700000000     0.802900000000     0          
C7       C      0.626460000000     0.640140000000     0.738100000000     0          
H6       H      0.597000000000     0.639900000000     0.763000000000     0          
C8       C      0.726740000000     0.712420000000     0.744900000000     0          
Zr2      Zr     0.500000000000     0.557150000000     0.625130000000     0          
O1       O      0.540250000000     0.557700000000     0.500000000000     0          
O5       O      0.539770000000     0.500000000000     0.624500000000     0          
O2       O      0.567000000000     0.420020000000     0.673800000000     0          
O3       O      0.620200000000     0.456150000000     0.594200000000     0          
C1       C      0.606540000000     0.425810000000     0.646300000000     0          
C2       C      0.640170000000     0.392670000000     0.678200000000     0          
C3       C      0.683380000000     0.392720000000     0.643100000000     0          
H3       H      0.693200000000     0.415600000000     0.603200000000     0          
C4       C      0.712290000000     0.359310000000     0.666300000000     0          
H4       H      0.741700000000     0.359200000000     0.641200000000     0          
C5       C      0.698580000000     0.325800000000     0.726500000000     0          
C6       C      0.655240000000     0.326700000000     0.761900000000     0          
H5       H      0.645400000000     0.304300000000     0.802900000000     0          
C7       C      0.626460000000     0.359860000000     0.738100000000     0          
H6       H      0.597000000000     0.360100000000     0.763000000000     0          
C8       C      0.726740000000     0.287580000000     0.744900000000     0          
O2       O      0.433000000000     0.579980000000     0.673800000000     0          
O3       O      0.379800000000     0.543850000000     0.594200000000     0          
C1       C      0.393460000000     0.574190000000     0.646300000000     0          
C2       C      0.359830000000     0.607330000000     0.678200000000     0          
C3       C      0.316620000000     0.607280000000     0.643100000000     0          
H3       H      0.306800000000     0.584400000000     0.603200000000     0          
C4       C      0.287710000000     0.640690000000     0.666300000000     0          
H4       H      0.258300000000     0.640800000000     0.641200000000     0          
C5       C      0.301420000000     0.674200000000     0.726500000000     0          
C6       C      0.344760000000     0.673300000000     0.761900000000     0          
H5       H      0.354600000000     0.695700000000     0.802900000000     0          
C7       C      0.373540000000     0.640140000000     0.738100000000     0          
H6       H      0.403000000000     0.639900000000     0.763000000000     0          
C8       C      0.273260000000     0.712420000000     0.744900000000     0          
O2       O      0.567000000000     0.579980000000     0.326200000000     0          
O3       O      0.620200000000     0.543850000000     0.405800000000     0          
C1       C      0.606540000000     0.574190000000     0.353700000000     0          
C2       C      0.640170000000     0.607330000000     0.321800000000     0          
C3       C      0.683380000000     0.607280000000     0.356900000000     0          
H3       H      0.693200000000     0.584400000000     0.396800000000     0          
C4       C      0.712290000000     0.640690000000     0.333700000000     0          
H4       H      0.741700000000     0.640800000000     0.358800000000     0          
C5       C      0.698580000000     0.674200000000     0.273500000000     0          
C6       C      0.655240000000     0.673300000000     0.238100000000     0          
H5       H      0.645400000000     0.695700000000     0.197100000000     0          
C7       C      0.626460000000     0.640140000000     0.261900000000     0          
H6       H      0.597000000000     0.639900000000     0.237000000000     0          
C8       C      0.726740000000     0.712420000000     0.255100000000     0          
O2       O      0.433000000000     0.420020000000     0.326200000000     0          
O3       O      0.379800000000     0.456150000000     0.405800000000     0          
C1       C      0.393460000000     0.425810000000     0.353700000000     0          
C2       C      0.359830000000     0.392670000000     0.321800000000     0          
C3       C      0.316620000000     0.392720000000     0.356900000000     0          
H3       H      0.306800000000     0.415600000000     0.396800000000     0          
C4       C      0.287710000000     0.359310000000     0.333700000000     0          
H4       H      0.258300000000     0.359200000000     0.358800000000     0          
C5       C      0.301420000000     0.325800000000     0.273500000000     0          
C6       C      0.344760000000     0.326700000000     0.238100000000     0          
H5       H      0.354600000000     0.304300000000     0.197100000000     0          
C7       C      0.373540000000     0.359860000000     0.261900000000     0          
H6       H      0.403000000000     0.360100000000     0.237000000000     0          
C8       C      0.273260000000     0.287580000000     0.255100000000     0          
O2       O      0.933000000000     0.079980000000     0.326200000000     0          
O3       O      0.879800000000     0.043850000000     0.405800000000     0          
C1       C      0.893460000000     0.074190000000     0.353700000000     0          
C2       C      0.859830000000     0.107330000000     0.321800000000     0          
C3       C      0.816620000000     0.107280000000     0.356900000000     0          
H3       H      0.806800000000     0.084400000000     0.396800000000     0          
C4       C      0.787710000000     0.140690000000     0.333700000000     0          
H4       H      0.758300000000     0.140800000000     0.358800000000     0          
C5       C      0.801420000000     0.174200000000     0.273500000000     0          
C6       C      0.844760000000     0.173300000000     0.238100000000     0          
H5       H      0.854600000000     0.195700000000     0.197100000000     0          
C7       C      0.873540000000     0.140140000000     0.261900000000     0          
H6       H      0.903000000000     0.139900000000     0.237000000000     0          
C8       C      0.773260000000     0.212420000000     0.255100000000     0          
Zr1      Zr     0.917790000000     0.000000000000     0.500000000000     0          
Zr2      Zr     0.000000000000     0.057150000000     0.374870000000     0          
O1       O      0.959750000000     0.057700000000     0.500000000000     0          
O5       O      0.960230000000     0.000000000000     0.375500000000     0          
N1       N      0.795670000000     0.250000000000     0.250000000000     0          
O2       O      0.067000000000     0.920020000000     0.326200000000     0          
O3       O      0.120200000000     0.956150000000     0.405800000000     0          
C1       C      0.106540000000     0.925810000000     0.353700000000     0          
C2       C      0.140170000000     0.892670000000     0.321800000000     0          
C3       C      0.183380000000     0.892720000000     0.356900000000     0          
H3       H      0.193200000000     0.915600000000     0.396800000000     0          
C4       C      0.212290000000     0.859310000000     0.333700000000     0          
H4       H      0.241700000000     0.859200000000     0.358800000000     0          
C5       C      0.198580000000     0.825800000000     0.273500000000     0          
C6       C      0.155240000000     0.826700000000     0.238100000000     0          
H5       H      0.145400000000     0.804300000000     0.197100000000     0          
C7       C      0.126460000000     0.859860000000     0.261900000000     0          
H6       H      0.097000000000     0.860100000000     0.237000000000     0          
C8       C      0.226740000000     0.787580000000     0.255100000000     0          
Zr1      Zr     0.082210000000     0.000000000000     0.500000000000     0          
Zr2      Zr     0.000000000000     0.942850000000     0.374870000000     0          
O1       O      0.040250000000     0.942300000000     0.500000000000     0          
O5       O      0.039770000000     0.000000000000     0.375500000000     0          
N1       N      0.204330000000     0.750000000000     0.250000000000     0          
O2       O      0.933000000000     0.920020000000     0.673800000000     0          
O3       O      0.879800000000     0.956150000000     0.594200000000     0          
C1       C      0.893460000000     0.925810000000     0.646300000000     0          
C2       C      0.859830000000     0.892670000000     0.678200000000     0          
C3       C      0.816620000000     0.892720000000     0.643100000000     0          
H3       H      0.806800000000     0.915600000000     0.603200000000     0          
C4       C      0.787710000000     0.859310000000     0.666300000000     0          
H4       H      0.758300000000     0.859200000000     0.641200000000     0          
C5       C      0.801420000000     0.825800000000     0.726500000000     0          
C6       C      0.844760000000     0.826700000000     0.761900000000     0          
H5       H      0.854600000000     0.804300000000     0.802900000000     0          
C7       C      0.873540000000     0.859860000000     0.738100000000     0          
H6       H      0.903000000000     0.860100000000     0.763000000000     0          
C8       C      0.773260000000     0.787580000000     0.744900000000     0          
Zr2      Zr     0.000000000000     0.942850000000     0.625130000000     0          
O1       O      0.959750000000     0.942300000000     0.500000000000     0          
O5       O      0.960230000000     0.000000000000     0.624500000000     0          
N1       N      0.795670000000     0.750000000000     0.750000000000     0          
O2       O      0.067000000000     0.079980000000     0.673800000000     0          
O3       O      0.120200000000     0.043850000000     0.594200000000     0          
C1       C      0.106540000000     0.074190000000     0.646300000000     0          
C2       C      0.140170000000     0.107330000000     0.678200000000     0          
C3       C      0.183380000000     0.107280000000     0.643100000000     0          
H3       H      0.193200000000     0.084400000000     0.603200000000     0          
C4       C      0.212290000000     0.140690000000     0.666300000000     0          
H4       H      0.241700000000     0.140800000000     0.641200000000     0          
C5       C      0.198580000000     0.174200000000     0.726500000000     0          
C6       C      0.155240000000     0.173300000000     0.761900000000     0          
H5       H      0.145400000000     0.195700000000     0.802900000000     0          
C7       C      0.126460000000     0.140140000000     0.738100000000     0          
H6       H      0.097000000000     0.139900000000     0.763000000000     0          
C8       C      0.226740000000     0.212420000000     0.744900000000     0          
Zr2      Zr     0.000000000000     0.057150000000     0.625130000000     0          
O1       O      0.040250000000     0.057700000000     0.500000000000     0          
O5       O      0.039770000000     0.000000000000     0.624500000000     0          
N1       N      0.204330000000     0.250000000000     0.750000000000     0          
O2       O      0.067000000000     0.920020000000     0.673800000000     0          
O3       O      0.120200000000     0.956150000000     0.594200000000     0          
C1       C      0.106540000000     0.925810000000     0.646300000000     0          
C2       C      0.140170000000     0.892670000000     0.678200000000     0          
C3       C      0.183380000000     0.892720000000     0.643100000000     0          
H3       H      0.193200000000     0.915600000000     0.603200000000     0          
C4       C      0.212290000000     0.859310000000     0.666300000000     0          
H4       H      0.241700000000     0.859200000000     0.641200000000     0          
C5       C      0.198580000000     0.825800000000     0.726500000000     0          
C6       C      0.155240000000     0.826700000000     0.761900000000     0          
H5       H      0.145400000000     0.804300000000     0.802900000000     0          
C7       C      0.126460000000     0.859860000000     0.738100000000     0          
H6       H      0.097000000000     0.860100000000     0.763000000000     0          
C8       C      0.226740000000     0.787580000000     0.744900000000     0          
N1       N      0.204330000000     0.750000000000     0.750000000000     0          
O2       O      0.933000000000     0.079980000000     0.673800000000     0          
O3       O      0.879800000000     0.043850000000     0.594200000000     0          
C1       C      0.893460000000     0.074190000000     0.646300000000     0          
C2       C      0.859830000000     0.107330000000     0.678200000000     0          
C3       C      0.816620000000     0.107280000000     0.643100000000     0          
H3       H      0.806800000000     0.084400000000     0.603200000000     0          
C4       C      0.787710000000     0.140690000000     0.666300000000     0          
H4       H      0.758300000000     0.140800000000     0.641200000000     0          
C5       C      0.801420000000     0.174200000000     0.726500000000     0          
C6       C      0.844760000000     0.173300000000     0.761900000000     0          
H5       H      0.854600000000     0.195700000000     0.802900000000     0          
C7       C      0.873540000000     0.140140000000     0.738100000000     0          
H6       H      0.903000000000     0.139900000000     0.763000000000     0          
C8       C      0.773260000000     0.212420000000     0.744900000000     0          
N1       N      0.795670000000     0.250000000000     0.750000000000     0          
O2       O      0.067000000000     0.079980000000     0.326200000000     0          
O3       O      0.120200000000     0.043850000000     0.405800000000     0          
C1       C      0.106540000000     0.074190000000     0.353700000000     0          
C2       C      0.140170000000     0.107330000000     0.321800000000     0          
C3       C      0.183380000000     0.107280000000     0.356900000000     0          
H3       H      0.193200000000     0.084400000000     0.396800000000     0          
C4       C      0.212290000000     0.140690000000     0.333700000000     0          
H4       H      0.241700000000     0.140800000000     0.358800000000     0          
C5       C      0.198580000000     0.174200000000     0.273500000000     0          
C6       C      0.155240000000     0.173300000000     0.238100000000     0          
H5       H      0.145400000000     0.195700000000     0.197100000000     0          
C7       C      0.126460000000     0.140140000000     0.261900000000     0          
H6       H      0.097000000000     0.139900000000     0.237000000000     0          
C8       C      0.226740000000     0.212420000000     0.255100000000     0          
N1       N      0.204330000000     0.250000000000     0.250000000000     0          
O2       O      0.933000000000     0.920020000000     0.326200000000     0          
O3       O      0.879800000000     0.956150000000     0.405800000000     0          
C1       C      0.893460000000     0.925810000000     0.353700000000     0          
C2       C      0.859830000000     0.892670000000     0.321800000000     0          
C3       C      0.816620000000     0.892720000000     0.356900000000     0          
H3       H      0.806800000000     0.915600000000     0.396800000000     0          
C4       C      0.787710000000     0.859310000000     0.333700000000     0          
H4       H      0.758300000000     0.859200000000     0.358800000000     0          
C5       C      0.801420000000     0.825800000000     0.273500000000     0          
C6       C      0.844760000000     0.826700000000     0.238100000000     0          
H5       H      0.854600000000     0.804300000000     0.197100000000     0          
C7       C      0.873540000000     0.859860000000     0.261900000000     0          
H6       H      0.903000000000     0.860100000000     0.237000000000     0          
C8       C      0.773260000000     0.787580000000     0.255100000000     0          
N1       N      0.795670000000     0.750000000000     0.250000000000     0          
O2       O      0.933000000000     0.579980000000     0.826200000000     0          
O3       O      0.879800000000     0.543850000000     0.905800000000     0          
C1       C      0.893460000000     0.574190000000     0.853700000000     0          
C2       C      0.859830000000     0.607330000000     0.821800000000     0          
C3       C      0.816620000000     0.607280000000     0.856900000000     0          
H3       H      0.806800000000     0.584400000000     0.896800000000     0          
C4       C      0.787710000000     0.640690000000     0.833700000000     0          
H4       H      0.758300000000     0.640800000000     0.858800000000     0          
C5       C      0.801420000000     0.674200000000     0.773500000000     0          
C6       C      0.844760000000     0.673300000000     0.738100000000     0          
H5       H      0.854600000000     0.695700000000     0.697100000000     0          
C7       C      0.873540000000     0.640140000000     0.761900000000     0          
H6       H      0.903000000000     0.639900000000     0.737000000000     0          
C8       C      0.773260000000     0.712420000000     0.755100000000     0          
Zr1      Zr     0.917790000000     0.500000000000     0.000000000000     0          
Zr2      Zr     0.000000000000     0.557150000000     0.874870000000     0          
O1       O      0.959750000000     0.557700000000     0.000000000000     0          
O5       O      0.960230000000     0.500000000000     0.875500000000     0          
O2       O      0.067000000000     0.420020000000     0.826200000000     0          
O3       O      0.120200000000     0.456150000000     0.905800000000     0          
C1       C      0.106540000000     0.425810000000     0.853700000000     0          
C2       C      0.140170000000     0.392670000000     0.821800000000     0          
C3       C      0.183380000000     0.392720000000     0.856900000000     0          
H3       H      0.193200000000     0.415600000000     0.896800000000     0          
C4       C      0.212290000000     0.359310000000     0.833700000000     0          
H4       H      0.241700000000     0.359200000000     0.858800000000     0          
C5       C      0.198580000000     0.325800000000     0.773500000000     0          
C6       C      0.155240000000     0.326700000000     0.738100000000     0          
H5       H      0.145400000000     0.304300000000     0.697100000000     0          
C7       C      0.126460000000     0.359860000000     0.761900000000     0          
H6       H      0.097000000000     0.360100000000     0.737000000000     0          
C8       C      0.226740000000     0.287580000000     0.755100000000     0          
Zr1      Zr     0.082210000000     0.500000000000     0.000000000000     0          
Zr2      Zr     0.000000000000     0.442850000000     0.874870000000     0          
O1       O      0.040250000000     0.442300000000     0.000000000000     0          
O5       O      0.039770000000     0.500000000000     0.875500000000     0          
O2       O      0.933000000000     0.420020000000     0.173800000000     0          
O3       O      0.879800000000     0.456150000000     0.094200000000     0          
C1       C      0.893460000000     0.425810000000     0.146300000000     0          
C2       C      0.859830000000     0.392670000000     0.178200000000     0          
C3       C      0.816620000000     0.392720000000     0.143100000000     0          
H3       H      0.806800000000     0.415600000000     0.103200000000     0          
C4       C      0.787710000000     0.359310000000     0.166300000000     0          
H4       H      0.758300000000     0.359200000000     0.141200000000     0          
C5       C      0.801420000000     0.325800000000     0.226500000000     0          
C6       C      0.844760000000     0.326700000000     0.261900000000     0          
H5       H      0.854600000000     0.304300000000     0.302900000000     0          
C7       C      0.873540000000     0.359860000000     0.238100000000     0          
H6       H      0.903000000000     0.360100000000     0.263000000000     0          
C8       C      0.773260000000     0.287580000000     0.244900000000     0          
Zr2      Zr     0.000000000000     0.442850000000     0.125130000000     0          
O1       O      0.959750000000     0.442300000000     0.000000000000     0          
O5       O      0.960230000000     0.500000000000     0.124500000000     0          
O2       O      0.067000000000     0.579980000000     0.173800000000     0          
O3       O      0.120200000000     0.543850000000     0.094200000000     0          
C1       C      0.106540000000     0.574190000000     0.146300000000     0          
C2       C      0.140170000000     0.607330000000     0.178200000000     0          
C3       C      0.183380000000     0.607280000000     0.143100000000     0          
H3       H      0.193200000000     0.584400000000     0.103200000000     0          
C4       C      0.212290000000     0.640690000000     0.166300000000     0          
H4       H      0.241700000000     0.640800000000     0.141200000000     0          
C5       C      0.198580000000     0.674200000000     0.226500000000     0          
C6       C      0.155240000000     0.673300000000     0.261900000000     0          
H5       H      0.145400000000     0.695700000000     0.302900000000     0          
C7       C      0.126460000000     0.640140000000     0.238100000000     0          
H6       H      0.097000000000     0.639900000000     0.263000000000     0          
C8       C      0.226740000000     0.712420000000     0.244900000000     0          
Zr2      Zr     0.000000000000     0.557150000000     0.125130000000     0          
O1       O      0.040250000000     0.557700000000     0.000000000000     0          
O5       O      0.039770000000     0.500000000000     0.124500000000     0          
O2       O      0.067000000000     0.420020000000     0.173800000000     0          
O3       O      0.120200000000     0.456150000000     0.094200000000     0          
C1       C      0.106540000000     0.425810000000     0.146300000000     0          
C2       C      0.140170000000     0.392670000000     0.178200000000     0          
C3       C      0.183380000000     0.392720000000     0.143100000000     0          
H3       H      0.193200000000     0.415600000000     0.103200000000     0          
C4       C      0.212290000000     0.359310000000     0.166300000000     0          
H4       H      0.241700000000     0.359200000000     0.141200000000     0          
C5       C      0.198580000000     0.325800000000     0.226500000000     0          
C6       C      0.155240000000     0.326700000000     0.261900000000     0          
H5       H      0.145400000000     0.304300000000     0.302900000000     0          
C7       C      0.126460000000     0.359860000000     0.238100000000     0          
H6       H      0.097000000000     0.360100000000     0.263000000000     0          
C8       C      0.226740000000     0.287580000000     0.244900000000     0          
O2       O      0.933000000000     0.579980000000     0.173800000000     0          
O3       O      0.879800000000     0.543850000000     0.094200000000     0          
C1       C      0.893460000000     0.574190000000     0.146300000000     0          
C2       C      0.859830000000     0.607330000000     0.178200000000     0          
C3       C      0.816620000000     0.607280000000     0.143100000000     0          
H3       H      0.806800000000     0.584400000000     0.103200000000     0          
C4       C      0.787710000000     0.640690000000     0.166300000000     0          
H4       H      0.758300000000     0.640800000000     0.141200000000     0          
C5       C      0.801420000000     0.674200000000     0.226500000000     0          
C6       C      0.844760000000     0.673300000000     0.261900000000     0          
H5       H      0.854600000000     0.695700000000     0.302900000000     0          
C7       C      0.873540000000     0.640140000000     0.238100000000     0          
H6       H      0.903000000000     0.639900000000     0.263000000000     0          
C8       C      0.773260000000     0.712420000000     0.244900000000     0          
O2       O      0.067000000000     0.579980000000     0.826200000000     0          
O3       O      0.120200000000     0.543850000000     0.905800000000     0          
C1       C      0.106540000000     0.574190000000     0.853700000000     0          
C2       C      0.140170000000     0.607330000000     0.821800000000     0          
C3       C      0.183380000000     0.607280000000     0.856900000000     0          
H3       H      0.193200000000     0.584400000000     0.896800000000     0          
C4       C      0.212290000000     0.640690000000     0.833700000000     0          
H4       H      0.241700000000     0.640800000000     0.858800000000     0          
C5       C      0.198580000000     0.674200000000     0.773500000000     0          
C6       C      0.155240000000     0.673300000000     0.738100000000     0          
H5       H      0.145400000000     0.695700000000     0.697100000000     0          
C7       C      0.126460000000     0.640140000000     0.761900000000     0          
H6       H      0.097000000000     0.639900000000     0.737000000000     0          
C8       C      0.226740000000     0.712420000000     0.755100000000     0          
O2       O      0.933000000000     0.420020000000     0.826200000000     0          
O3       O      0.879800000000     0.456150000000     0.905800000000     0          
C1       C      0.893460000000     0.425810000000     0.853700000000     0          
C2       C      0.859830000000     0.392670000000     0.821800000000     0          
C3       C      0.816620000000     0.392720000000     0.856900000000     0          
H3       H      0.806800000000     0.415600000000     0.896800000000     0          
C4       C      0.787710000000     0.359310000000     0.833700000000     0          
H4       H      0.758300000000     0.359200000000     0.858800000000     0          
C5       C      0.801420000000     0.325800000000     0.773500000000     0          
C6       C      0.844760000000     0.326700000000     0.738100000000     0          
H5       H      0.854600000000     0.304300000000     0.697100000000     0          
C7       C      0.873540000000     0.359860000000     0.761900000000     0          
H6       H      0.903000000000     0.360100000000     0.737000000000     0          
C8       C      0.773260000000     0.287580000000     0.755100000000     0          


