data_YIXPED

_audit_creation_method RASPA-1.0
_audit_creation_date 2020-11-2
_audit_author_name 'Rocio Bueno-Perez'

_cell_length_a    39.505
_cell_length_b    39.505
_cell_length_c    16.3357
_cell_angle_alpha 90
_cell_angle_beta  90
_cell_angle_gamma 120
_cell_volume      22078.6

_symmetry_cell_setting          triclinic
_symmetry_space_group_name_Hall 'P 1'
_symmetry_space_group_name_H-M  'P 1'
_symmetry_Int_Tables_number     1

_symmetry_equiv_pos_as_xyz 'x,y,z'

loop_
_atom_site_label
_atom_site_type_symbol
_atom_site_fract_x
_atom_site_fract_y
_atom_site_fract_z
_atom_site_charge
C1       C      0.602100000000     0.507200000000     0.131800000000     0          
C2       C      0.633800000000     0.509200000000     0.182400000000     0          
C3       C      0.644000000000     0.481100000000     0.171900000000     0          
H4       H      0.628370000000     0.457220000000     0.124060000000     0          
C5       C      0.673500000000     0.482000000000     0.220000000000     0          
H6       H      0.682230000000     0.458730000000     0.211740000000     0          
C7       C      0.692500000000     0.509800000000     0.277000000000     0          
C8       C      0.682800000000     0.539400000000     0.286500000000     0          
H9       H      0.698800000000     0.563490000000     0.333760000000     0          
C10      C      0.654600000000     0.539700000000     0.240100000000     0          
H11      H      0.647630000000     0.564270000000     0.247350000000     0          
C12      C      0.724600000000     0.508300000000     0.329100000000     0          
C13      C      0.723800000000     0.510500000000     0.411900000000     0          
C14      C      0.691200000000     0.506900000000     0.459700000000     0          
H15      H      0.664230000000     0.503920000000     0.427540000000     0          
O16      O      0.586200000000     0.481600000000     0.082900000000     0          
O17      O      0.592600000000     0.533100000000     0.150000000000     0          
C18      C      0.492800000000     0.094900000000     0.131800000000     0          
C19      C      0.490800000000     0.124600000000     0.182400000000     0          
C20      C      0.518900000000     0.162900000000     0.171900000000     0          
H21      H      0.542780000000     0.171150000000     0.124060000000     0          
C22      C      0.518000000000     0.191500000000     0.220000000000     0          
H23      H      0.541270000000     0.223510000000     0.211740000000     0          
C24      C      0.490200000000     0.182700000000     0.277000000000     0          
C25      C      0.460600000000     0.143400000000     0.286500000000     0          
H26      H      0.436510000000     0.135310000000     0.333760000000     0          
C27      C      0.460300000000     0.114900000000     0.240100000000     0          
H28      H      0.435730000000     0.083360000000     0.247350000000     0          
C29      C      0.491700000000     0.216300000000     0.329100000000     0          
C30      C      0.489500000000     0.213300000000     0.411900000000     0          
C31      C      0.493100000000     0.184300000000     0.459700000000     0          
H32      H      0.496080000000     0.160310000000     0.427540000000     0          
O33      O      0.518400000000     0.104600000000     0.082900000000     0          
O34      O      0.466900000000     0.059500000000     0.150000000000     0          
C35      C      0.905100000000     0.397900000000     0.131800000000     0          
C36      C      0.875400000000     0.366200000000     0.182400000000     0          
C37      C      0.837100000000     0.356000000000     0.171900000000     0          
H38      H      0.828850000000     0.371630000000     0.124060000000     0          
C39      C      0.808500000000     0.326500000000     0.220000000000     0          
H40      H      0.776490000000     0.317770000000     0.211740000000     0          
C41      C      0.817300000000     0.307500000000     0.277000000000     0          
C42      C      0.856600000000     0.317200000000     0.286500000000     0          
H43      H      0.864690000000     0.301200000000     0.333760000000     0          
C44      C      0.885100000000     0.345400000000     0.240100000000     0          
H45      H      0.916640000000     0.352370000000     0.247350000000     0          
C46      C      0.783700000000     0.275400000000     0.329100000000     0          
C47      C      0.786700000000     0.276200000000     0.411900000000     0          
C48      C      0.815700000000     0.308800000000     0.459700000000     0          
H49      H      0.839690000000     0.335770000000     0.427540000000     0          
O50      O      0.895400000000     0.413800000000     0.082900000000     0          
O51      O      0.940500000000     0.407400000000     0.150000000000     0          
O52      O      0.948000000000     0.472000000000     0.294000000000     0          
C53      C      0.973200000000     0.457200000000     0.300200000000     0          
C54      C      0.963300000000     0.423700000000     0.361600000000     0          
C55      C      0.984900000000     0.404800000000     0.364700000000     0          
H56      H      0.010490000000     0.413710000000     0.321010000000     0          
C57      C      0.975400000000     0.375000000000     0.421000000000     0          
H58      H      0.993190000000     0.359520000000     0.423450000000     0          
C59      C      0.944200000000     0.364100000000     0.474300000000     0          
C60      C      0.922500000000     0.383000000000     0.471000000000     0          
H61      H      0.896780000000     0.373980000000     0.514400000000     0          
C62      C      0.932100000000     0.412800000000     0.415000000000     0          
H63      H      0.914420000000     0.428400000000     0.412670000000     0          
C64      C      0.934100000000     0.331700000000     0.535000000000     0          
C65      C      0.924500000000     0.305500000000     0.580000000000     0          
C66      C      0.397900000000     0.492800000000     0.131800000000     0          
C67      C      0.366200000000     0.490800000000     0.182400000000     0          
C68      C      0.356000000000     0.518900000000     0.171900000000     0          
H69      H      0.371630000000     0.542780000000     0.124060000000     0          
C70      C      0.326500000000     0.518000000000     0.220000000000     0          
H71      H      0.317770000000     0.541270000000     0.211740000000     0          
C72      C      0.307500000000     0.490200000000     0.277000000000     0          
C73      C      0.317200000000     0.460600000000     0.286500000000     0          
H74      H      0.301200000000     0.436510000000     0.333760000000     0          
C75      C      0.345400000000     0.460300000000     0.240100000000     0          
H76      H      0.352370000000     0.435730000000     0.247350000000     0          
C77      C      0.275400000000     0.491700000000     0.329100000000     0          
C78      C      0.276200000000     0.489500000000     0.411900000000     0          
C79      C      0.308800000000     0.493100000000     0.459700000000     0          
H80      H      0.335770000000     0.496080000000     0.427540000000     0          
O81      O      0.413800000000     0.518400000000     0.082900000000     0          
O82      O      0.407400000000     0.466900000000     0.150000000000     0          
O83      O      0.472000000000     0.524000000000     0.294000000000     0          
C84      C      0.457200000000     0.484000000000     0.300200000000     0          
C85      C      0.423700000000     0.460400000000     0.361600000000     0          
C86      C      0.404800000000     0.419900000000     0.364700000000     0          
H87      H      0.413710000000     0.403220000000     0.321010000000     0          
C88      C      0.375000000000     0.399600000000     0.421000000000     0          
H89      H      0.359520000000     0.366330000000     0.423450000000     0          
C90      C      0.364100000000     0.419900000000     0.474300000000     0          
C91      C      0.383000000000     0.460500000000     0.471000000000     0          
H92      H      0.373980000000     0.477190000000     0.514400000000     0          
C93      C      0.412800000000     0.480700000000     0.415000000000     0          
H94      H      0.428400000000     0.513980000000     0.412670000000     0          
C95      C      0.331700000000     0.397600000000     0.535000000000     0          
C96      C      0.305500000000     0.381000000000     0.580000000000     0          
C97      C      0.507200000000     0.905100000000     0.131800000000     0          
C98      C      0.509200000000     0.875400000000     0.182400000000     0          
C99      C      0.481100000000     0.837100000000     0.171900000000     0          
H100     H      0.457220000000     0.828850000000     0.124060000000     0          
C101     C      0.482000000000     0.808500000000     0.220000000000     0          
H102     H      0.458730000000     0.776490000000     0.211740000000     0          
C103     C      0.509800000000     0.817300000000     0.277000000000     0          
C104     C      0.539400000000     0.856600000000     0.286500000000     0          
H105     H      0.563490000000     0.864690000000     0.333760000000     0          
C106     C      0.539700000000     0.885100000000     0.240100000000     0          
H107     H      0.564270000000     0.916640000000     0.247350000000     0          
C108     C      0.508300000000     0.783700000000     0.329100000000     0          
C109     C      0.510500000000     0.786700000000     0.411900000000     0          
C110     C      0.506900000000     0.815700000000     0.459700000000     0          
H111     H      0.503920000000     0.839690000000     0.427540000000     0          
O112     O      0.481600000000     0.895400000000     0.082900000000     0          
O113     O      0.533100000000     0.940500000000     0.150000000000     0          
C114     C      0.094900000000     0.602100000000     0.131800000000     0          
C115     C      0.124600000000     0.633800000000     0.182400000000     0          
C116     C      0.162900000000     0.644000000000     0.171900000000     0          
H117     H      0.171150000000     0.628370000000     0.124060000000     0          
C118     C      0.191500000000     0.673500000000     0.220000000000     0          
H119     H      0.223510000000     0.682230000000     0.211740000000     0          
C120     C      0.182700000000     0.692500000000     0.277000000000     0          
C121     C      0.143400000000     0.682800000000     0.286500000000     0          
H122     H      0.135310000000     0.698800000000     0.333760000000     0          
C123     C      0.114900000000     0.654600000000     0.240100000000     0          
H124     H      0.083360000000     0.647630000000     0.247350000000     0          
C125     C      0.216300000000     0.724600000000     0.329100000000     0          
C126     C      0.213300000000     0.723800000000     0.411900000000     0          
C127     C      0.184300000000     0.691200000000     0.459700000000     0          
H128     H      0.160310000000     0.664230000000     0.427540000000     0          
O129     O      0.104600000000     0.586200000000     0.082900000000     0          
O130     O      0.059500000000     0.592600000000     0.150000000000     0          
O131     O      0.052000000000     0.528000000000     0.294000000000     0          
C132     C      0.026800000000     0.542800000000     0.300200000000     0          
C133     C      0.036700000000     0.576300000000     0.361600000000     0          
C134     C      0.015100000000     0.595200000000     0.364700000000     0          
H135     H      0.989510000000     0.586290000000     0.321010000000     0          
C136     C      0.024600000000     0.625000000000     0.421000000000     0          
H137     H      0.006810000000     0.640480000000     0.423450000000     0          
C138     C      0.055800000000     0.635900000000     0.474300000000     0          
C139     C      0.077500000000     0.617000000000     0.471000000000     0          
H140     H      0.076810000000     0.604750000000     0.534550000000     0          
C141     C      0.067900000000     0.587200000000     0.415000000000     0          
H142     H      0.062200000000     0.560060000000     0.450740000000     0          
C143     C      0.065900000000     0.668300000000     0.535000000000     0          
C144     C      0.075500000000     0.694500000000     0.580000000000     0          
C145     C      0.507200000000     0.602100000000     0.868200000000     0          
C146     C      0.509200000000     0.633800000000     0.817600000000     0          
C147     C      0.481100000000     0.644000000000     0.828100000000     0          
H148     H      0.457220000000     0.628370000000     0.875940000000     0          
C149     C      0.482000000000     0.673500000000     0.780000000000     0          
H150     H      0.458730000000     0.682230000000     0.788260000000     0          
C151     C      0.509800000000     0.692500000000     0.723000000000     0          
C152     C      0.539400000000     0.682800000000     0.713500000000     0          
H153     H      0.563490000000     0.698800000000     0.666240000000     0          
C154     C      0.539700000000     0.654600000000     0.759900000000     0          
H155     H      0.564270000000     0.647630000000     0.752650000000     0          
C156     C      0.508300000000     0.724600000000     0.670900000000     0          
C157     C      0.510500000000     0.723800000000     0.588100000000     0          
C158     C      0.506900000000     0.691200000000     0.540300000000     0          
H159     H      0.503920000000     0.664230000000     0.572460000000     0          
O160     O      0.481600000000     0.586200000000     0.917100000000     0          
O161     O      0.533100000000     0.592600000000     0.850000000000     0          
C162     C      0.094900000000     0.492800000000     0.868200000000     0          
C163     C      0.124600000000     0.490800000000     0.817600000000     0          
C164     C      0.162900000000     0.518900000000     0.828100000000     0          
H165     H      0.171150000000     0.542780000000     0.875940000000     0          
C166     C      0.191500000000     0.518000000000     0.780000000000     0          
H167     H      0.223510000000     0.541270000000     0.788260000000     0          
C168     C      0.182700000000     0.490200000000     0.723000000000     0          
C169     C      0.143400000000     0.460600000000     0.713500000000     0          
H170     H      0.135310000000     0.436510000000     0.666240000000     0          
C171     C      0.114900000000     0.460300000000     0.759900000000     0          
H172     H      0.083360000000     0.435730000000     0.752650000000     0          
C173     C      0.216300000000     0.491700000000     0.670900000000     0          
C174     C      0.213300000000     0.489500000000     0.588100000000     0          
C175     C      0.184300000000     0.493100000000     0.540300000000     0          
H176     H      0.160310000000     0.496080000000     0.572460000000     0          
O177     O      0.104600000000     0.518400000000     0.917100000000     0          
O178     O      0.059500000000     0.466900000000     0.850000000000     0          
O179     O      0.052000000000     0.524000000000     0.706000000000     0          
C180     C      0.026800000000     0.484000000000     0.699800000000     0          
C181     C      0.036700000000     0.460400000000     0.638400000000     0          
C182     C      0.015100000000     0.419900000000     0.635300000000     0          
H183     H      0.989510000000     0.403220000000     0.678990000000     0          
C184     C      0.024600000000     0.399600000000     0.579000000000     0          
H185     H      0.006810000000     0.366330000000     0.576550000000     0          
C186     C      0.055800000000     0.419900000000     0.525700000000     0          
C187     C      0.077500000000     0.460500000000     0.529000000000     0          
H188     H      0.103220000000     0.477190000000     0.485600000000     0          
C189     C      0.067900000000     0.480700000000     0.585000000000     0          
H190     H      0.085580000000     0.513980000000     0.587330000000     0          
C191     C      0.065900000000     0.397600000000     0.465000000000     0          
C192     C      0.075500000000     0.381000000000     0.420000000000     0          
C193     C      0.397900000000     0.905100000000     0.868200000000     0          
C194     C      0.366200000000     0.875400000000     0.817600000000     0          
C195     C      0.356000000000     0.837100000000     0.828100000000     0          
H196     H      0.371630000000     0.828850000000     0.875940000000     0          
C197     C      0.326500000000     0.808500000000     0.780000000000     0          
H198     H      0.317770000000     0.776490000000     0.788260000000     0          
C199     C      0.307500000000     0.817300000000     0.723000000000     0          
C200     C      0.317200000000     0.856600000000     0.713500000000     0          
H201     H      0.301200000000     0.864690000000     0.666240000000     0          
C202     C      0.345400000000     0.885100000000     0.759900000000     0          
H203     H      0.352370000000     0.916640000000     0.752650000000     0          
C204     C      0.275400000000     0.783700000000     0.670900000000     0          
C205     C      0.276200000000     0.786700000000     0.588100000000     0          
C206     C      0.308800000000     0.815700000000     0.540300000000     0          
H207     H      0.335770000000     0.839690000000     0.572460000000     0          
O208     O      0.413800000000     0.895400000000     0.917100000000     0          
O209     O      0.407400000000     0.940500000000     0.850000000000     0          
H210     H      0.412250000000     0.006260000000     0.671660000000     0          
C211     C      0.492800000000     0.397900000000     0.868200000000     0          
C212     C      0.490800000000     0.366200000000     0.817600000000     0          
C213     C      0.518900000000     0.356000000000     0.828100000000     0          
H214     H      0.542780000000     0.371630000000     0.875940000000     0          
C215     C      0.518000000000     0.326500000000     0.780000000000     0          
H216     H      0.541270000000     0.317770000000     0.788260000000     0          
C217     C      0.490200000000     0.307500000000     0.723000000000     0          
C218     C      0.460600000000     0.317200000000     0.713500000000     0          
H219     H      0.436510000000     0.301200000000     0.666240000000     0          
C220     C      0.460300000000     0.345400000000     0.759900000000     0          
H221     H      0.435730000000     0.352370000000     0.752650000000     0          
C222     C      0.491700000000     0.275400000000     0.670900000000     0          
C223     C      0.489500000000     0.276200000000     0.588100000000     0          
C224     C      0.493100000000     0.308800000000     0.540300000000     0          
H225     H      0.496080000000     0.335770000000     0.572460000000     0          
O226     O      0.518400000000     0.413800000000     0.917100000000     0          
O227     O      0.466900000000     0.407400000000     0.850000000000     0          
C228     C      0.484000000000     0.457200000000     0.699800000000     0          
C229     C      0.460400000000     0.423700000000     0.638400000000     0          
C230     C      0.419900000000     0.404800000000     0.635300000000     0          
H231     H      0.403220000000     0.413710000000     0.678990000000     0          
C232     C      0.399600000000     0.375000000000     0.579000000000     0          
H233     H      0.366330000000     0.359520000000     0.576550000000     0          
C234     C      0.419900000000     0.364100000000     0.525700000000     0          
C235     C      0.460500000000     0.383000000000     0.529000000000     0          
H236     H      0.477190000000     0.373980000000     0.485600000000     0          
C237     C      0.480700000000     0.412800000000     0.585000000000     0          
H238     H      0.513980000000     0.428400000000     0.587330000000     0          
C239     C      0.397600000000     0.331700000000     0.465000000000     0          
C240     C      0.381000000000     0.305500000000     0.420000000000     0          
C241     C      0.905100000000     0.507200000000     0.868200000000     0          
C242     C      0.875400000000     0.509200000000     0.817600000000     0          
C243     C      0.837100000000     0.481100000000     0.828100000000     0          
H244     H      0.828850000000     0.457220000000     0.875940000000     0          
C245     C      0.808500000000     0.482000000000     0.780000000000     0          
H246     H      0.776490000000     0.458730000000     0.788260000000     0          
C247     C      0.817300000000     0.509800000000     0.723000000000     0          
C248     C      0.856600000000     0.539400000000     0.713500000000     0          
H249     H      0.864690000000     0.563490000000     0.666240000000     0          
C250     C      0.885100000000     0.539700000000     0.759900000000     0          
H251     H      0.916640000000     0.564270000000     0.752650000000     0          
C252     C      0.783700000000     0.508300000000     0.670900000000     0          
C253     C      0.786700000000     0.510500000000     0.588100000000     0          
C254     C      0.815700000000     0.506900000000     0.540300000000     0          
H255     H      0.839690000000     0.503920000000     0.572460000000     0          
O256     O      0.895400000000     0.481600000000     0.917100000000     0          
O257     O      0.940500000000     0.533100000000     0.850000000000     0          
O258     O      0.948000000000     0.476000000000     0.706000000000     0          
C259     C      0.973200000000     0.516000000000     0.699800000000     0          
C260     C      0.963300000000     0.539600000000     0.638400000000     0          
C261     C      0.984900000000     0.580100000000     0.635300000000     0          
H262     H      0.010490000000     0.596780000000     0.678990000000     0          
C263     C      0.975400000000     0.600400000000     0.579000000000     0          
H264     H      0.993190000000     0.633670000000     0.576550000000     0          
C265     C      0.944200000000     0.580100000000     0.525700000000     0          
C266     C      0.922500000000     0.539500000000     0.529000000000     0          
H267     H      0.896780000000     0.522810000000     0.485600000000     0          
C268     C      0.932100000000     0.519300000000     0.585000000000     0          
H269     H      0.914420000000     0.486020000000     0.587330000000     0          
C270     C      0.934100000000     0.602400000000     0.465000000000     0          
C271     C      0.924500000000     0.619000000000     0.420000000000     0          
C272     C      0.602100000000     0.094900000000     0.868200000000     0          
C273     C      0.633800000000     0.124600000000     0.817600000000     0          
C274     C      0.644000000000     0.162900000000     0.828100000000     0          
H275     H      0.628370000000     0.171150000000     0.875940000000     0          
C276     C      0.673500000000     0.191500000000     0.780000000000     0          
H277     H      0.682230000000     0.223510000000     0.788260000000     0          
C278     C      0.692500000000     0.182700000000     0.723000000000     0          
C279     C      0.682800000000     0.143400000000     0.713500000000     0          
H280     H      0.698800000000     0.135310000000     0.666240000000     0          
C281     C      0.654600000000     0.114900000000     0.759900000000     0          
H282     H      0.647630000000     0.083360000000     0.752650000000     0          
C283     C      0.724600000000     0.216300000000     0.670900000000     0          
C284     C      0.723800000000     0.213300000000     0.588100000000     0          
C285     C      0.691200000000     0.184300000000     0.540300000000     0          
H286     H      0.664230000000     0.160310000000     0.572460000000     0          
O287     O      0.586200000000     0.104600000000     0.917100000000     0          
O288     O      0.592600000000     0.059500000000     0.850000000000     0          
H289     H      0.587750000000     0.993740000000     0.671660000000     0          
C290     C      0.397900000000     0.492800000000     0.868200000000     0          
C291     C      0.366200000000     0.490800000000     0.817600000000     0          
C292     C      0.356000000000     0.518900000000     0.828100000000     0          
H293     H      0.371630000000     0.542780000000     0.875940000000     0          
C294     C      0.326500000000     0.518000000000     0.780000000000     0          
H295     H      0.317770000000     0.541270000000     0.788260000000     0          
C296     C      0.307500000000     0.490200000000     0.723000000000     0          
C297     C      0.317200000000     0.460600000000     0.713500000000     0          
H298     H      0.301200000000     0.436510000000     0.666240000000     0          
C299     C      0.345400000000     0.460300000000     0.759900000000     0          
H300     H      0.352370000000     0.435730000000     0.752650000000     0          
C301     C      0.275400000000     0.491700000000     0.670900000000     0          
C302     C      0.276200000000     0.489500000000     0.588100000000     0          
C303     C      0.308800000000     0.493100000000     0.540300000000     0          
H304     H      0.335120000000     0.496010000000     0.575190000000     0          
O305     O      0.413800000000     0.518400000000     0.917100000000     0          
O306     O      0.407400000000     0.466900000000     0.850000000000     0          
C307     C      0.507200000000     0.905100000000     0.868200000000     0          
C308     C      0.509200000000     0.875400000000     0.817600000000     0          
C309     C      0.481100000000     0.837100000000     0.828100000000     0          
H310     H      0.457220000000     0.828850000000     0.875940000000     0          
C311     C      0.482000000000     0.808500000000     0.780000000000     0          
H312     H      0.458730000000     0.776490000000     0.788260000000     0          
C313     C      0.509800000000     0.817300000000     0.723000000000     0          
C314     C      0.539400000000     0.856600000000     0.713500000000     0          
H315     H      0.563490000000     0.864690000000     0.666240000000     0          
C316     C      0.539700000000     0.885100000000     0.759900000000     0          
H317     H      0.564270000000     0.916640000000     0.752650000000     0          
C318     C      0.508300000000     0.783700000000     0.670900000000     0          
C319     C      0.510500000000     0.786700000000     0.588100000000     0          
C320     C      0.506900000000     0.815700000000     0.540300000000     0          
H321     H      0.503990000000     0.839110000000     0.575190000000     0          
O322     O      0.481600000000     0.895400000000     0.917100000000     0          
O323     O      0.533100000000     0.940500000000     0.850000000000     0          
O324     O      0.476000000000     0.948000000000     0.706000000000     0          
C325     C      0.516000000000     0.973200000000     0.699800000000     0          
C326     C      0.539600000000     0.963300000000     0.638400000000     0          
C327     C      0.580100000000     0.984900000000     0.635300000000     0          
H328     H      0.596780000000     0.010490000000     0.678990000000     0          
C329     C      0.600400000000     0.975400000000     0.579000000000     0          
H330     H      0.633670000000     0.993190000000     0.576550000000     0          
C331     C      0.580100000000     0.944200000000     0.525700000000     0          
C332     C      0.539500000000     0.922500000000     0.529000000000     0          
H333     H      0.522810000000     0.896780000000     0.485600000000     0          
C334     C      0.519300000000     0.932100000000     0.585000000000     0          
H335     H      0.486020000000     0.914420000000     0.587330000000     0          
C336     C      0.602400000000     0.934100000000     0.465000000000     0          
C337     C      0.619000000000     0.924500000000     0.420000000000     0          
C338     C      0.094900000000     0.602100000000     0.868200000000     0          
C339     C      0.124600000000     0.633800000000     0.817600000000     0          
C340     C      0.162900000000     0.644000000000     0.828100000000     0          
H341     H      0.171150000000     0.628370000000     0.875940000000     0          
C342     C      0.191500000000     0.673500000000     0.780000000000     0          
H343     H      0.223510000000     0.682230000000     0.788260000000     0          
C344     C      0.182700000000     0.692500000000     0.723000000000     0          
C345     C      0.143400000000     0.682800000000     0.713500000000     0          
H346     H      0.135310000000     0.698800000000     0.666240000000     0          
C347     C      0.114900000000     0.654600000000     0.759900000000     0          
H348     H      0.083360000000     0.647630000000     0.752650000000     0          
C349     C      0.216300000000     0.724600000000     0.670900000000     0          
C350     C      0.213300000000     0.723800000000     0.588100000000     0          
C351     C      0.184300000000     0.691200000000     0.540300000000     0          
H352     H      0.160890000000     0.664880000000     0.575190000000     0          
O353     O      0.104600000000     0.586200000000     0.917100000000     0          
O354     O      0.059500000000     0.592600000000     0.850000000000     0          
H355     H      0.109250000000     0.639140000000     0.456230000000     0          
C356     C      0.602100000000     0.507200000000     0.868200000000     0          
C357     C      0.633800000000     0.509200000000     0.817600000000     0          
C358     C      0.644000000000     0.481100000000     0.828100000000     0          
H359     H      0.628370000000     0.457220000000     0.875940000000     0          
C360     C      0.673500000000     0.482000000000     0.780000000000     0          
H361     H      0.682230000000     0.458730000000     0.788260000000     0          
C362     C      0.692500000000     0.509800000000     0.723000000000     0          
C363     C      0.682800000000     0.539400000000     0.713500000000     0          
H364     H      0.698800000000     0.563490000000     0.666240000000     0          
C365     C      0.654600000000     0.539700000000     0.759900000000     0          
H366     H      0.647630000000     0.564270000000     0.752650000000     0          
C367     C      0.724600000000     0.508300000000     0.670900000000     0          
C368     C      0.723800000000     0.510500000000     0.588100000000     0          
C369     C      0.691200000000     0.506900000000     0.540300000000     0          
H370     H      0.664880000000     0.503990000000     0.575190000000     0          
O371     O      0.586200000000     0.481600000000     0.917100000000     0          
O372     O      0.592600000000     0.533100000000     0.850000000000     0          
O373     O      0.528000000000     0.476000000000     0.706000000000     0          
C374     C      0.542800000000     0.516000000000     0.699800000000     0          
C375     C      0.576300000000     0.539600000000     0.638400000000     0          
C376     C      0.595200000000     0.580100000000     0.635300000000     0          
H377     H      0.586290000000     0.596780000000     0.678990000000     0          
C378     C      0.625000000000     0.600400000000     0.579000000000     0          
H379     H      0.640480000000     0.633670000000     0.576550000000     0          
C380     C      0.635900000000     0.580100000000     0.525700000000     0          
C381     C      0.617000000000     0.539500000000     0.529000000000     0          
H382     H      0.626020000000     0.522810000000     0.485600000000     0          
C383     C      0.587200000000     0.519300000000     0.585000000000     0          
H384     H      0.571600000000     0.486020000000     0.587330000000     0          
C385     C      0.668300000000     0.602400000000     0.465000000000     0          
C386     C      0.694500000000     0.619000000000     0.420000000000     0          
C387     C      0.492800000000     0.094900000000     0.868200000000     0          
C388     C      0.490800000000     0.124600000000     0.817600000000     0          
C389     C      0.518900000000     0.162900000000     0.828100000000     0          
H390     H      0.542780000000     0.171150000000     0.875940000000     0          
C391     C      0.518000000000     0.191500000000     0.780000000000     0          
H392     H      0.541270000000     0.223510000000     0.788260000000     0          
C393     C      0.490200000000     0.182700000000     0.723000000000     0          
C394     C      0.460600000000     0.143400000000     0.713500000000     0          
H395     H      0.436510000000     0.135310000000     0.666240000000     0          
C396     C      0.460300000000     0.114900000000     0.759900000000     0          
H397     H      0.435730000000     0.083360000000     0.752650000000     0          
C398     C      0.491700000000     0.216300000000     0.670900000000     0          
C399     C      0.489500000000     0.213300000000     0.588100000000     0          
C400     C      0.493100000000     0.184300000000     0.540300000000     0          
H401     H      0.496010000000     0.160890000000     0.575190000000     0          
O402     O      0.518400000000     0.104600000000     0.917100000000     0          
O403     O      0.466900000000     0.059500000000     0.850000000000     0          
O404     O      0.524000000000     0.052000000000     0.706000000000     0          
C405     C      0.484000000000     0.026800000000     0.699800000000     0          
C406     C      0.460400000000     0.036700000000     0.638400000000     0          
C407     C      0.419900000000     0.015100000000     0.635300000000     0          
H408     H      0.403220000000     0.989510000000     0.678990000000     0          
C409     C      0.399600000000     0.024600000000     0.579000000000     0          
H410     H      0.366330000000     0.006810000000     0.576550000000     0          
C411     C      0.419900000000     0.055800000000     0.525700000000     0          
C412     C      0.460500000000     0.077500000000     0.529000000000     0          
H413     H      0.477190000000     0.103220000000     0.485600000000     0          
C414     C      0.480700000000     0.067900000000     0.585000000000     0          
H415     H      0.513980000000     0.085580000000     0.587330000000     0          
C416     C      0.397600000000     0.065900000000     0.465000000000     0          
C417     C      0.381000000000     0.075500000000     0.420000000000     0          
C418     C      0.905100000000     0.397900000000     0.868200000000     0          
C419     C      0.875400000000     0.366200000000     0.817600000000     0          
C420     C      0.837100000000     0.356000000000     0.828100000000     0          
H421     H      0.828850000000     0.371630000000     0.875940000000     0          
C422     C      0.808500000000     0.326500000000     0.780000000000     0          
H423     H      0.776490000000     0.317770000000     0.788260000000     0          
C424     C      0.817300000000     0.307500000000     0.723000000000     0          
C425     C      0.856600000000     0.317200000000     0.713500000000     0          
H426     H      0.864690000000     0.301200000000     0.666240000000     0          
C427     C      0.885100000000     0.345400000000     0.759900000000     0          
H428     H      0.916640000000     0.352370000000     0.752650000000     0          
C429     C      0.783700000000     0.275400000000     0.670900000000     0          
C430     C      0.786700000000     0.276200000000     0.588100000000     0          
C431     C      0.815700000000     0.308800000000     0.540300000000     0          
H432     H      0.839110000000     0.335120000000     0.575190000000     0          
O433     O      0.895400000000     0.413800000000     0.917100000000     0          
O434     O      0.940500000000     0.407400000000     0.850000000000     0          
C435     C      0.492800000000     0.397900000000     0.131800000000     0          
C436     C      0.490800000000     0.366200000000     0.182400000000     0          
C437     C      0.518900000000     0.356000000000     0.171900000000     0          
H438     H      0.542780000000     0.371630000000     0.124060000000     0          
C439     C      0.518000000000     0.326500000000     0.220000000000     0          
H440     H      0.541270000000     0.317770000000     0.211740000000     0          
C441     C      0.490200000000     0.307500000000     0.277000000000     0          
C442     C      0.460600000000     0.317200000000     0.286500000000     0          
H443     H      0.436510000000     0.301200000000     0.333760000000     0          
C444     C      0.460300000000     0.345400000000     0.240100000000     0          
H445     H      0.435730000000     0.352370000000     0.247350000000     0          
C446     C      0.491700000000     0.275400000000     0.329100000000     0          
C447     C      0.489500000000     0.276200000000     0.411900000000     0          
C448     C      0.493100000000     0.308800000000     0.459700000000     0          
H449     H      0.496010000000     0.335120000000     0.424810000000     0          
O450     O      0.518400000000     0.413800000000     0.082900000000     0          
O451     O      0.466900000000     0.407400000000     0.150000000000     0          
C452     C      0.905100000000     0.507200000000     0.131800000000     0          
C453     C      0.875400000000     0.509200000000     0.182400000000     0          
C454     C      0.837100000000     0.481100000000     0.171900000000     0          
H455     H      0.828850000000     0.457220000000     0.124060000000     0          
C456     C      0.808500000000     0.482000000000     0.220000000000     0          
H457     H      0.776490000000     0.458730000000     0.211740000000     0          
C458     C      0.817300000000     0.509800000000     0.277000000000     0          
C459     C      0.856600000000     0.539400000000     0.286500000000     0          
H460     H      0.864690000000     0.563490000000     0.333760000000     0          
C461     C      0.885100000000     0.539700000000     0.240100000000     0          
H462     H      0.916640000000     0.564270000000     0.247350000000     0          
C463     C      0.783700000000     0.508300000000     0.329100000000     0          
C464     C      0.786700000000     0.510500000000     0.411900000000     0          
C465     C      0.815700000000     0.506900000000     0.459700000000     0          
H466     H      0.839110000000     0.503990000000     0.424810000000     0          
O467     O      0.895400000000     0.481600000000     0.082900000000     0          
O468     O      0.940500000000     0.533100000000     0.150000000000     0          
C469     C      0.602100000000     0.094900000000     0.131800000000     0          
C470     C      0.633800000000     0.124600000000     0.182400000000     0          
C471     C      0.644000000000     0.162900000000     0.171900000000     0          
H472     H      0.628370000000     0.171150000000     0.124060000000     0          
C473     C      0.673500000000     0.191500000000     0.220000000000     0          
H474     H      0.682230000000     0.223510000000     0.211740000000     0          
C475     C      0.692500000000     0.182700000000     0.277000000000     0          
C476     C      0.682800000000     0.143400000000     0.286500000000     0          
H477     H      0.698800000000     0.135310000000     0.333760000000     0          
C478     C      0.654600000000     0.114900000000     0.240100000000     0          
H479     H      0.647630000000     0.083360000000     0.247350000000     0          
C480     C      0.724600000000     0.216300000000     0.329100000000     0          
C481     C      0.723800000000     0.213300000000     0.411900000000     0          
C482     C      0.691200000000     0.184300000000     0.459700000000     0          
H483     H      0.664880000000     0.160890000000     0.424810000000     0          
O484     O      0.586200000000     0.104600000000     0.082900000000     0          
O485     O      0.592600000000     0.059500000000     0.150000000000     0          
O486     O      0.528000000000     0.052000000000     0.294000000000     0          
C487     C      0.542800000000     0.026800000000     0.300200000000     0          
C488     C      0.576300000000     0.036700000000     0.361600000000     0          
C489     C      0.595200000000     0.015100000000     0.364700000000     0          
H490     H      0.586290000000     0.989510000000     0.321010000000     0          
C491     C      0.625000000000     0.024600000000     0.421000000000     0          
H492     H      0.640480000000     0.006810000000     0.423450000000     0          
C493     C      0.635900000000     0.055800000000     0.474300000000     0          
C494     C      0.617000000000     0.077500000000     0.471000000000     0          
H495     H      0.626020000000     0.103220000000     0.514400000000     0          
C496     C      0.587200000000     0.067900000000     0.415000000000     0          
H497     H      0.571600000000     0.085580000000     0.412670000000     0          
C498     C      0.668300000000     0.065900000000     0.535000000000     0          
C499     C      0.694500000000     0.075500000000     0.580000000000     0          
C500     C      0.507200000000     0.602100000000     0.131800000000     0          
C501     C      0.509200000000     0.633800000000     0.182400000000     0          
C502     C      0.481100000000     0.644000000000     0.171900000000     0          
H503     H      0.457220000000     0.628370000000     0.124060000000     0          
C504     C      0.482000000000     0.673500000000     0.220000000000     0          
H505     H      0.458730000000     0.682230000000     0.211740000000     0          
C506     C      0.509800000000     0.692500000000     0.277000000000     0          
C507     C      0.539400000000     0.682800000000     0.286500000000     0          
H508     H      0.563490000000     0.698800000000     0.333760000000     0          
C509     C      0.539700000000     0.654600000000     0.240100000000     0          
H510     H      0.564270000000     0.647630000000     0.247350000000     0          
C511     C      0.508300000000     0.724600000000     0.329100000000     0          
C512     C      0.510500000000     0.723800000000     0.411900000000     0          
C513     C      0.506900000000     0.691200000000     0.459700000000     0          
H514     H      0.503990000000     0.664880000000     0.424810000000     0          
O515     O      0.481600000000     0.586200000000     0.082900000000     0          
O516     O      0.533100000000     0.592600000000     0.150000000000     0          
C517     C      0.516000000000     0.542800000000     0.300200000000     0          
C518     C      0.539600000000     0.576300000000     0.361600000000     0          
C519     C      0.580100000000     0.595200000000     0.364700000000     0          
H520     H      0.596780000000     0.586290000000     0.321010000000     0          
C521     C      0.600400000000     0.625000000000     0.421000000000     0          
H522     H      0.633670000000     0.640480000000     0.423450000000     0          
C523     C      0.580100000000     0.635900000000     0.474300000000     0          
C524     C      0.539500000000     0.617000000000     0.471000000000     0          
H525     H      0.522810000000     0.626020000000     0.514400000000     0          
C526     C      0.519300000000     0.587200000000     0.415000000000     0          
H527     H      0.486020000000     0.571600000000     0.412670000000     0          
C528     C      0.602400000000     0.668300000000     0.535000000000     0          
C529     C      0.619000000000     0.694500000000     0.580000000000     0          
C530     C      0.094900000000     0.492800000000     0.131800000000     0          
C531     C      0.124600000000     0.490800000000     0.182400000000     0          
C532     C      0.162900000000     0.518900000000     0.171900000000     0          
H533     H      0.171150000000     0.542780000000     0.124060000000     0          
C534     C      0.191500000000     0.518000000000     0.220000000000     0          
H535     H      0.223510000000     0.541270000000     0.211740000000     0          
C536     C      0.182700000000     0.490200000000     0.277000000000     0          
C537     C      0.143400000000     0.460600000000     0.286500000000     0          
H538     H      0.135310000000     0.436510000000     0.333760000000     0          
C539     C      0.114900000000     0.460300000000     0.240100000000     0          
H540     H      0.083360000000     0.435730000000     0.247350000000     0          
C541     C      0.216300000000     0.491700000000     0.329100000000     0          
C542     C      0.213300000000     0.489500000000     0.411900000000     0          
C543     C      0.184300000000     0.493100000000     0.459700000000     0          
H544     H      0.160890000000     0.496010000000     0.424810000000     0          
O545     O      0.104600000000     0.518400000000     0.082900000000     0          
O546     O      0.059500000000     0.466900000000     0.150000000000     0          
C547     C      0.397900000000     0.905100000000     0.131800000000     0          
C548     C      0.366200000000     0.875400000000     0.182400000000     0          
C549     C      0.356000000000     0.837100000000     0.171900000000     0          
H550     H      0.371630000000     0.828850000000     0.124060000000     0          
C551     C      0.326500000000     0.808500000000     0.220000000000     0          
H552     H      0.317770000000     0.776490000000     0.211740000000     0          
C553     C      0.307500000000     0.817300000000     0.277000000000     0          
C554     C      0.317200000000     0.856600000000     0.286500000000     0          
H555     H      0.301200000000     0.864690000000     0.333760000000     0          
C556     C      0.345400000000     0.885100000000     0.240100000000     0          
H557     H      0.352370000000     0.916640000000     0.247350000000     0          
C558     C      0.275400000000     0.783700000000     0.329100000000     0          
C559     C      0.276200000000     0.786700000000     0.411900000000     0          
C560     C      0.308800000000     0.815700000000     0.459700000000     0          
H561     H      0.335120000000     0.839110000000     0.424810000000     0          
O562     O      0.413800000000     0.895400000000     0.082900000000     0          
O563     O      0.407400000000     0.940500000000     0.150000000000     0          
O564     O      0.472000000000     0.948000000000     0.294000000000     0          
C565     C      0.457200000000     0.973200000000     0.300200000000     0          
C566     C      0.423700000000     0.963300000000     0.361600000000     0          
C567     C      0.404800000000     0.984900000000     0.364700000000     0          
H568     H      0.413710000000     0.010490000000     0.321010000000     0          
C569     C      0.375000000000     0.975400000000     0.421000000000     0          
H570     H      0.359520000000     0.993190000000     0.423450000000     0          
C571     C      0.364100000000     0.944200000000     0.474300000000     0          
C572     C      0.383000000000     0.922500000000     0.471000000000     0          
H573     H      0.373980000000     0.896780000000     0.514400000000     0          
C574     C      0.412800000000     0.932100000000     0.415000000000     0          
H575     H      0.428400000000     0.914420000000     0.412670000000     0          
C576     C      0.331700000000     0.934100000000     0.535000000000     0          
C577     C      0.305500000000     0.924500000000     0.580000000000     0          
C578     C      0.754000000000     0.508000000000     0.286800000000     0          
H579     H      0.753440000000     0.507510000000     0.217030000000     0          
C580     C      0.754250000000     0.508500000000     0.456300000000     0          
C581     C      0.492000000000     0.246000000000     0.286800000000     0          
H582     H      0.492490000000     0.246560000000     0.217030000000     0          
C583     C      0.491500000000     0.245750000000     0.456300000000     0          
C584     C      0.754000000000     0.246000000000     0.286800000000     0          
H585     H      0.753440000000     0.245930000000     0.217030000000     0          
C586     C      0.754250000000     0.245750000000     0.456300000000     0          
C587     C      0.246000000000     0.492000000000     0.286800000000     0          
H588     H      0.246560000000     0.492490000000     0.217030000000     0          
C589     C      0.245750000000     0.491500000000     0.456300000000     0          
C590     C      0.508000000000     0.754000000000     0.286800000000     0          
H591     H      0.507510000000     0.754070000000     0.217030000000     0          
C592     C      0.508500000000     0.754250000000     0.456300000000     0          
C593     C      0.246000000000     0.754000000000     0.286800000000     0          
H594     H      0.245930000000     0.753440000000     0.217030000000     0          
C595     C      0.245750000000     0.754250000000     0.456300000000     0          
C596     C      0.508000000000     0.754000000000     0.713200000000     0          
H597     H      0.507510000000     0.754070000000     0.782970000000     0          
C598     C      0.508500000000     0.754250000000     0.543700000000     0          
C599     C      0.246000000000     0.492000000000     0.713200000000     0          
H600     H      0.245930000000     0.492490000000     0.782970000000     0          
C601     C      0.245750000000     0.491500000000     0.543700000000     0          
C602     C      0.246000000000     0.754000000000     0.713200000000     0          
H603     H      0.246560000000     0.754070000000     0.782970000000     0          
C604     C      0.245750000000     0.754250000000     0.543700000000     0          
C605     C      0.492000000000     0.246000000000     0.713200000000     0          
H606     H      0.492490000000     0.246560000000     0.782970000000     0          
C607     C      0.491500000000     0.245750000000     0.543700000000     0          
C608     C      0.754000000000     0.508000000000     0.713200000000     0          
H609     H      0.753440000000     0.507510000000     0.782970000000     0          
C610     C      0.754250000000     0.508500000000     0.543700000000     0          
C611     C      0.754000000000     0.246000000000     0.713200000000     0          
H612     H      0.753440000000     0.245930000000     0.782970000000     0          
C613     C      0.754250000000     0.245750000000     0.543700000000     0          
O614     O      0.530000000000     0.565200000000     0.000000000000     0          
O615     O      0.434800000000     0.964800000000     0.000000000000     0          
O616     O      0.035200000000     0.470000000000     0.000000000000     0          
O617     O      0.470000000000     0.434800000000     0.000000000000     0          
O618     O      0.565200000000     0.035200000000     0.000000000000     0          
O619     O      0.964800000000     0.530000000000     0.000000000000     0          
O620     O      0.565200000000     0.530000000000     0.000000000000     0          
O621     O      0.964800000000     0.434800000000     0.000000000000     0          
O622     O      0.470000000000     0.035200000000     0.000000000000     0          
O623     O      0.434800000000     0.470000000000     0.000000000000     0          
O624     O      0.035200000000     0.565200000000     0.000000000000     0          
O625     O      0.530000000000     0.964800000000     0.000000000000     0          
O626     O      0.482200000000     0.517800000000     0.107600000000     0          
O627     O      0.482200000000     0.964400000000     0.107600000000     0          
O628     O      0.035600000000     0.517800000000     0.107600000000     0          
O629     O      0.517800000000     0.482200000000     0.107600000000     0          
O630     O      0.517800000000     0.035600000000     0.107600000000     0          
O631     O      0.964400000000     0.482200000000     0.107600000000     0          
O632     O      0.517800000000     0.482200000000     0.892400000000     0          
O633     O      0.517800000000     0.035600000000     0.892400000000     0          
O634     O      0.482200000000     0.517800000000     0.892400000000     0          
O635     O      0.035600000000     0.517800000000     0.892400000000     0          
O636     O      0.600800000000     0.600800000000     0.097200000000     0          
O637     O      0.540100000000     0.540100000000     0.243400000000     0          
Zr638    Zr     0.544540000000     0.544540000000     0.107880000000     0          
O639     O      0.399200000000     0.000000000000     0.097200000000     0          
O640     O      0.459900000000     0.000000000000     0.243400000000     0          
Zr641    Zr     0.455460000000     0.000000000000     0.107880000000     0          
O642     O      0.000000000000     0.399200000000     0.097200000000     0          
O643     O      0.000000000000     0.459900000000     0.243400000000     0          
Zr644    Zr     0.000000000000     0.455460000000     0.107880000000     0          
O645     O      0.399200000000     0.399200000000     0.097200000000     0          
O646     O      0.459900000000     0.459900000000     0.243400000000     0          
Zr647    Zr     0.455460000000     0.455460000000     0.107880000000     0          
O648     O      0.600800000000     0.000000000000     0.097200000000     0          
O649     O      0.540100000000     0.000000000000     0.243400000000     0          
Zr650    Zr     0.544540000000     0.000000000000     0.107880000000     0          
O651     O      0.000000000000     0.600800000000     0.097200000000     0          
O652     O      0.000000000000     0.540100000000     0.243400000000     0          
Zr653    Zr     0.000000000000     0.544540000000     0.107880000000     0          
O654     O      0.600800000000     0.600800000000     0.902800000000     0          
O655     O      0.540100000000     0.540100000000     0.756600000000     0          
Zr656    Zr     0.544540000000     0.544540000000     0.892120000000     0          
O657     O      0.000000000000     0.399200000000     0.902800000000     0          
O658     O      0.000000000000     0.459900000000     0.756600000000     0          
Zr659    Zr     0.000000000000     0.455460000000     0.892120000000     0          
O660     O      0.399200000000     0.000000000000     0.902800000000     0          
O661     O      0.459900000000     0.000000000000     0.756600000000     0          
Zr662    Zr     0.455460000000     0.000000000000     0.892120000000     0          
O663     O      0.399200000000     0.399200000000     0.902800000000     0          
O664     O      0.459900000000     0.459900000000     0.756600000000     0          
Zr665    Zr     0.455460000000     0.455460000000     0.892120000000     0          
O666     O      0.000000000000     0.600800000000     0.902800000000     0          
O667     O      0.000000000000     0.540100000000     0.756600000000     0          
Zr668    Zr     0.000000000000     0.544540000000     0.892120000000     0          
O669     O      0.600800000000     0.000000000000     0.902800000000     0          
O670     O      0.540100000000     0.000000000000     0.756600000000     0          
Zr671    Zr     0.544540000000     0.000000000000     0.892120000000     0          
Zr672    Zr     0.464390000000     0.535610000000     0.000000000000     0          
Zr673    Zr     0.464390000000     0.928780000000     0.000000000000     0          
Zr674    Zr     0.071220000000     0.535610000000     0.000000000000     0          
Zr675    Zr     0.535610000000     0.464390000000     0.000000000000     0          
Zr676    Zr     0.535610000000     0.071220000000     0.000000000000     0          
Zr677    Zr     0.928780000000     0.464390000000     0.000000000000     0          
O678     O      0.964400000000     0.482200000000     0.892400000000     0          
O679     O      0.482200000000     0.964400000000     0.892400000000     0          
H680     H      0.635210000000     0.915130000000     0.376060000000     0          
H681     H      0.720080000000     0.084870000000     0.623940000000     0          
H682     H      0.364790000000     0.084870000000     0.376060000000     0          
H683     H      0.279920000000     0.915130000000     0.623940000000     0          
H684     H      0.364790000000     0.279920000000     0.376060000000     0          
H685     H      0.279920000000     0.364790000000     0.623940000000     0          
H686     H      0.720080000000     0.635210000000     0.376060000000     0          
H687     H      0.635210000000     0.720080000000     0.623940000000     0          
H688     H      0.915130000000     0.635210000000     0.376060000000     0          
H689     H      0.084870000000     0.720080000000     0.623940000000     0          
H690     H      0.915130000000     0.279920000000     0.623940000000     0          
H691     H      0.084870000000     0.364790000000     0.376060000000     0          
H692     H      0.371870000000     0.009800000000     0.423200000000     0          
H693     H      0.637930000000     0.009800000000     0.576800000000     0          
H694     H      0.009800000000     0.637930000000     0.576800000000     0          
H695     H      0.093860000000     0.595360000000     0.372830000000     0          
H696     H      0.633240000000     0.617020000000     0.097200000000     0          
H697     H      0.431640000000     0.016220000000     0.097200000000     0          
H698     H      0.032440000000     0.415420000000     0.097200000000     0          
H699     H      0.431640000000     0.415420000000     0.097200000000     0          
H700     H      0.633240000000     0.016220000000     0.097200000000     0          
H701     H      0.032440000000     0.617020000000     0.097200000000     0          
H702     H      0.633240000000     0.617020000000     0.902800000000     0          
H703     H      0.032440000000     0.415420000000     0.902800000000     0          
H704     H      0.431640000000     0.016220000000     0.902800000000     0          
H705     H      0.431640000000     0.415420000000     0.902800000000     0          
H706     H      0.032440000000     0.617020000000     0.902800000000     0          
H707     H      0.633240000000     0.016220000000     0.902800000000     0          


