data_ZATPIW

_audit_creation_method RASPA-1.0
_audit_creation_date 2020-11-2
_audit_author_name 'Rocio Bueno-Perez'

_cell_length_a    27.6286
_cell_length_b    27.6286
_cell_length_c    13.501
_cell_angle_alpha 90
_cell_angle_beta  90
_cell_angle_gamma 90
_cell_volume      10305.8

_symmetry_cell_setting          triclinic
_symmetry_space_group_name_Hall 'P 1'
_symmetry_space_group_name_H-M  'P 1'
_symmetry_Int_Tables_number     1

_symmetry_equiv_pos_as_xyz 'x,y,z'

loop_
_atom_site_label
_atom_site_type_symbol
_atom_site_fract_x
_atom_site_fract_y
_atom_site_fract_z
_atom_site_charge
O1       O      0.537100000000     0.559640000000     0.234100000000     0          
O2       O      0.883950000000     0.576090000000     0.265200000000     0          
O3       O      0.850220000000     0.498420000000     0.288900000000     0          
O4       O      0.548500000000     0.606800000000     0.372400000000     0          
C5       C      0.643430000000     0.676630000000     0.250920000000     0          
N6       N      0.657540000000     0.628440000000     0.264880000000     0          
N7       N      0.706740000000     0.616430000000     0.268190000000     0          
C8       C      0.741830000000     0.652600000000     0.257530000000     0          
N9       N      0.727730000000     0.700790000000     0.243570000000     0          
N10      N      0.678530000000     0.712810000000     0.240270000000     0          
S11      S      0.581190000000     0.691820000000     0.246740000000     0          
S12      S      0.804080000000     0.637410000000     0.261720000000     0          
C13      C      0.541200000000     0.601800000000     0.279400000000     0          
C14      C      0.536250000000     0.647510000000     0.221900000000     0          
C15      C      0.801450000000     0.578500000000     0.275500000000     0          
C16      C      0.848590000000     0.549210000000     0.290900000000     0          
Zr17     Zr     0.417400000000     0.536440000000     0.490820000000     0          
O18      O      0.544640000000     0.487400000000     0.199990000000     0          
C19      C      0.569750000000     0.479570000000     0.120150000000     0          
N20      N      0.562120000000     0.440770000000     0.067970000000     0          
C21      C      0.587230000000     0.432940000000     0.988120000000     0          
C22      C      0.529390000000     0.409790000000     0.095650000000     0          
H23      H      0.598460000000     0.506730000000     0.095890000000     0          
O24      O      0.478400000000     0.559700000000     0.415200000000     0          
O25      O      0.458900000000     0.481800000000     0.434500000000     0          
O26      O      0.376200000000     0.564500000000     0.380800000000     0          
H27      H      0.569760000000     0.414240000000     0.921880000000     0          
H28      H      0.626720000000     0.444770000000     0.984350000000     0          
H29      H      0.547770000000     0.375780000000     0.125150000000     0          
H30      H      0.505600000000     0.399950000000     0.029660000000     0          
H31      H      0.506100000000     0.426470000000     0.156410000000     0          
H32      H      0.416380000000     0.564500000000     0.380800000000     0          
H33      H      0.163860000000     0.499220000000     0.988250000000     0          
H34      H      0.137080000000     0.537640000000     0.890260000000     0          
H35      H      0.217770000000     0.437020000000     0.207870000000     0          
H36      H      0.221390000000     0.430550000000     0.343330000000     0          
O37      O      0.037100000000     0.059640000000     0.734100000000     0          
O38      O      0.383950000000     0.076090000000     0.765200000000     0          
O39      O      0.350220000000     0.998420000000     0.788900000000     0          
O40      O      0.048500000000     0.106800000000     0.872400000000     0          
C41      C      0.143430000000     0.176630000000     0.750920000000     0          
N42      N      0.157540000000     0.128440000000     0.764880000000     0          
N43      N      0.206740000000     0.116430000000     0.768190000000     0          
C44      C      0.241830000000     0.152600000000     0.757530000000     0          
N45      N      0.227730000000     0.200790000000     0.743570000000     0          
N46      N      0.178530000000     0.212810000000     0.740270000000     0          
S47      S      0.081190000000     0.191820000000     0.746740000000     0          
S48      S      0.304080000000     0.137410000000     0.761720000000     0          
C49      C      0.041200000000     0.101800000000     0.779400000000     0          
C50      C      0.036250000000     0.147510000000     0.721900000000     0          
C51      C      0.301450000000     0.078500000000     0.775500000000     0          
C52      C      0.348590000000     0.049210000000     0.790900000000     0          
Zr53     Zr     0.917400000000     0.036440000000     0.990820000000     0          
O54      O      0.044640000000     0.987400000000     0.699990000000     0          
C55      C      0.069750000000     0.979570000000     0.620150000000     0          
N56      N      0.062120000000     0.940770000000     0.567970000000     0          
C57      C      0.087230000000     0.932940000000     0.488120000000     0          
C58      C      0.029390000000     0.909790000000     0.595650000000     0          
H59      H      0.098460000000     0.006730000000     0.595890000000     0          
O60      O      0.978400000000     0.059700000000     0.915200000000     0          
O61      O      0.958900000000     0.981800000000     0.934500000000     0          
O62      O      0.876200000000     0.064500000000     0.880800000000     0          
H63      H      0.069760000000     0.914240000000     0.421880000000     0          
H64      H      0.126720000000     0.944770000000     0.484350000000     0          
H65      H      0.047770000000     0.875780000000     0.625150000000     0          
H66      H      0.005600000000     0.899950000000     0.529660000000     0          
H67      H      0.006100000000     0.926470000000     0.656410000000     0          
H68      H      0.916380000000     0.064500000000     0.880800000000     0          
H69      H      0.663860000000     0.999220000000     0.488250000000     0          
H70      H      0.637080000000     0.037640000000     0.390260000000     0          
H71      H      0.717770000000     0.937020000000     0.707870000000     0          
H72      H      0.721390000000     0.930550000000     0.843330000000     0          
O73      O      0.462900000000     0.440360000000     0.234100000000     0          
O74      O      0.116050000000     0.423910000000     0.265200000000     0          
O75      O      0.149780000000     0.501580000000     0.288900000000     0          
O76      O      0.451500000000     0.393200000000     0.372400000000     0          
C77      C      0.356570000000     0.323370000000     0.250920000000     0          
N78      N      0.342460000000     0.371560000000     0.264880000000     0          
N79      N      0.293260000000     0.383570000000     0.268190000000     0          
C80      C      0.258170000000     0.347400000000     0.257530000000     0          
N81      N      0.272270000000     0.299210000000     0.243570000000     0          
N82      N      0.321470000000     0.287190000000     0.240270000000     0          
S83      S      0.418810000000     0.308180000000     0.246740000000     0          
S84      S      0.195920000000     0.362590000000     0.261720000000     0          
C85      C      0.458800000000     0.398200000000     0.279400000000     0          
C86      C      0.463750000000     0.352490000000     0.221900000000     0          
C87      C      0.198550000000     0.421500000000     0.275500000000     0          
C88      C      0.151410000000     0.450790000000     0.290900000000     0          
Zr89     Zr     0.582600000000     0.463560000000     0.490820000000     0          
O90      O      0.455360000000     0.512600000000     0.199990000000     0          
C91      C      0.430250000000     0.520430000000     0.120150000000     0          
N92      N      0.437880000000     0.559230000000     0.067970000000     0          
C93      C      0.412770000000     0.567060000000     0.988120000000     0          
C94      C      0.470610000000     0.590210000000     0.095650000000     0          
H95      H      0.401540000000     0.493270000000     0.095890000000     0          
O96      O      0.521600000000     0.440300000000     0.415200000000     0          
O97      O      0.541100000000     0.518200000000     0.434500000000     0          
O98      O      0.623800000000     0.435500000000     0.380800000000     0          
H99      H      0.430240000000     0.585760000000     0.921880000000     0          
H100     H      0.373280000000     0.555230000000     0.984350000000     0          
H101     H      0.452230000000     0.624220000000     0.125150000000     0          
H102     H      0.494400000000     0.600050000000     0.029660000000     0          
H103     H      0.493900000000     0.573530000000     0.156410000000     0          
H104     H      0.583620000000     0.435500000000     0.380800000000     0          
H105     H      0.836140000000     0.500780000000     0.988250000000     0          
H106     H      0.862920000000     0.462360000000     0.890260000000     0          
H107     H      0.782230000000     0.562980000000     0.207870000000     0          
H108     H      0.778610000000     0.569450000000     0.343330000000     0          
O109     O      0.962900000000     0.940360000000     0.734100000000     0          
O110     O      0.616050000000     0.923910000000     0.765200000000     0          
O111     O      0.649780000000     0.001580000000     0.788900000000     0          
O112     O      0.951500000000     0.893200000000     0.872400000000     0          
C113     C      0.856570000000     0.823370000000     0.750920000000     0          
N114     N      0.842460000000     0.871560000000     0.764880000000     0          
N115     N      0.793260000000     0.883570000000     0.768190000000     0          
C116     C      0.758170000000     0.847400000000     0.757530000000     0          
N117     N      0.772270000000     0.799210000000     0.743570000000     0          
N118     N      0.821470000000     0.787190000000     0.740270000000     0          
S119     S      0.918810000000     0.808180000000     0.746740000000     0          
S120     S      0.695920000000     0.862590000000     0.761720000000     0          
C121     C      0.958800000000     0.898200000000     0.779400000000     0          
C122     C      0.963750000000     0.852490000000     0.721900000000     0          
C123     C      0.698550000000     0.921500000000     0.775500000000     0          
C124     C      0.651410000000     0.950790000000     0.790900000000     0          
Zr125    Zr     0.082600000000     0.963560000000     0.990820000000     0          
O126     O      0.955360000000     0.012600000000     0.699990000000     0          
C127     C      0.930250000000     0.020430000000     0.620150000000     0          
N128     N      0.937880000000     0.059230000000     0.567970000000     0          
C129     C      0.912770000000     0.067060000000     0.488120000000     0          
C130     C      0.970610000000     0.090210000000     0.595650000000     0          
H131     H      0.901540000000     0.993270000000     0.595890000000     0          
O132     O      0.021600000000     0.940300000000     0.915200000000     0          
O133     O      0.041100000000     0.018200000000     0.934500000000     0          
O134     O      0.123800000000     0.935500000000     0.880800000000     0          
H135     H      0.930240000000     0.085760000000     0.421880000000     0          
H136     H      0.873280000000     0.055230000000     0.484350000000     0          
H137     H      0.952230000000     0.124220000000     0.625150000000     0          
H138     H      0.994400000000     0.100050000000     0.529660000000     0          
H139     H      0.993900000000     0.073530000000     0.656410000000     0          
H140     H      0.083620000000     0.935500000000     0.880800000000     0          
H141     H      0.336140000000     0.000780000000     0.488250000000     0          
H142     H      0.362920000000     0.962360000000     0.390260000000     0          
H143     H      0.282230000000     0.062980000000     0.707870000000     0          
H144     H      0.278610000000     0.069450000000     0.843330000000     0          
O145     O      0.559640000000     0.462900000000     0.765900000000     0          
O146     O      0.576090000000     0.116050000000     0.734800000000     0          
O147     O      0.498420000000     0.149780000000     0.711100000000     0          
O148     O      0.606800000000     0.451500000000     0.627600000000     0          
C149     C      0.676630000000     0.356570000000     0.749080000000     0          
N150     N      0.628440000000     0.342460000000     0.735120000000     0          
N151     N      0.616430000000     0.293260000000     0.731810000000     0          
C152     C      0.652600000000     0.258170000000     0.742470000000     0          
N153     N      0.700790000000     0.272270000000     0.756430000000     0          
N154     N      0.712810000000     0.321470000000     0.759730000000     0          
S155     S      0.691820000000     0.418810000000     0.753260000000     0          
S156     S      0.637410000000     0.195920000000     0.738280000000     0          
C157     C      0.601800000000     0.458800000000     0.720600000000     0          
C158     C      0.647510000000     0.463750000000     0.778100000000     0          
C159     C      0.578500000000     0.198550000000     0.724500000000     0          
C160     C      0.549210000000     0.151410000000     0.709100000000     0          
Zr161    Zr     0.536440000000     0.582600000000     0.509180000000     0          
O162     O      0.487400000000     0.455360000000     0.800010000000     0          
C163     C      0.479570000000     0.430250000000     0.879850000000     0          
N164     N      0.440770000000     0.437880000000     0.932030000000     0          
C165     C      0.432940000000     0.412770000000     0.011880000000     0          
C166     C      0.409790000000     0.470610000000     0.904350000000     0          
H167     H      0.506730000000     0.401540000000     0.904110000000     0          
O168     O      0.559700000000     0.521600000000     0.584800000000     0          
O169     O      0.481800000000     0.541100000000     0.565500000000     0          
O170     O      0.564500000000     0.623800000000     0.619200000000     0          
H171     H      0.414240000000     0.430240000000     0.078120000000     0          
H172     H      0.444770000000     0.373280000000     0.015650000000     0          
H173     H      0.375780000000     0.452230000000     0.874850000000     0          
H174     H      0.399950000000     0.494400000000     0.970340000000     0          
H175     H      0.426470000000     0.493900000000     0.843590000000     0          
H176     H      0.564500000000     0.583620000000     0.619200000000     0          
H177     H      0.499220000000     0.836140000000     0.011750000000     0          
H178     H      0.537640000000     0.862920000000     0.109740000000     0          
H179     H      0.437020000000     0.782230000000     0.792130000000     0          
H180     H      0.430550000000     0.778610000000     0.656670000000     0          
O181     O      0.059640000000     0.962900000000     0.265900000000     0          
O182     O      0.076090000000     0.616050000000     0.234800000000     0          
O183     O      0.998420000000     0.649780000000     0.211100000000     0          
O184     O      0.106800000000     0.951500000000     0.127600000000     0          
C185     C      0.176630000000     0.856570000000     0.249080000000     0          
N186     N      0.128440000000     0.842460000000     0.235120000000     0          
N187     N      0.116430000000     0.793260000000     0.231810000000     0          
C188     C      0.152600000000     0.758170000000     0.242470000000     0          
N189     N      0.200790000000     0.772270000000     0.256430000000     0          
N190     N      0.212810000000     0.821470000000     0.259730000000     0          
S191     S      0.191820000000     0.918810000000     0.253260000000     0          
S192     S      0.137410000000     0.695920000000     0.238280000000     0          
C193     C      0.101800000000     0.958800000000     0.220600000000     0          
C194     C      0.147510000000     0.963750000000     0.278100000000     0          
C195     C      0.078500000000     0.698550000000     0.224500000000     0          
C196     C      0.049210000000     0.651410000000     0.209100000000     0          
Zr197    Zr     0.036440000000     0.082600000000     0.009180000000     0          
O198     O      0.987400000000     0.955360000000     0.300010000000     0          
C199     C      0.979570000000     0.930250000000     0.379850000000     0          
N200     N      0.940770000000     0.937880000000     0.432030000000     0          
C201     C      0.932940000000     0.912770000000     0.511880000000     0          
C202     C      0.909790000000     0.970610000000     0.404350000000     0          
H203     H      0.006730000000     0.901540000000     0.404110000000     0          
O204     O      0.059700000000     0.021600000000     0.084800000000     0          
O205     O      0.981800000000     0.041100000000     0.065500000000     0          
O206     O      0.064500000000     0.123800000000     0.119200000000     0          
H207     H      0.914240000000     0.930240000000     0.578120000000     0          
H208     H      0.944770000000     0.873280000000     0.515650000000     0          
H209     H      0.875780000000     0.952230000000     0.374850000000     0          
H210     H      0.899950000000     0.994400000000     0.470340000000     0          
H211     H      0.926470000000     0.993900000000     0.343590000000     0          
H212     H      0.064500000000     0.083620000000     0.119200000000     0          
H213     H      0.999220000000     0.336140000000     0.511750000000     0          
H214     H      0.037640000000     0.362920000000     0.609740000000     0          
H215     H      0.937020000000     0.282230000000     0.292130000000     0          
H216     H      0.930550000000     0.278610000000     0.156670000000     0          
O217     O      0.440360000000     0.537100000000     0.765900000000     0          
O218     O      0.423910000000     0.883950000000     0.734800000000     0          
O219     O      0.501580000000     0.850220000000     0.711100000000     0          
O220     O      0.393200000000     0.548500000000     0.627600000000     0          
C221     C      0.323370000000     0.643430000000     0.749080000000     0          
N222     N      0.371560000000     0.657540000000     0.735120000000     0          
N223     N      0.383570000000     0.706740000000     0.731810000000     0          
C224     C      0.347400000000     0.741830000000     0.742470000000     0          
N225     N      0.299210000000     0.727730000000     0.756430000000     0          
N226     N      0.287190000000     0.678530000000     0.759730000000     0          
S227     S      0.308180000000     0.581190000000     0.753260000000     0          
S228     S      0.362590000000     0.804080000000     0.738280000000     0          
C229     C      0.398200000000     0.541200000000     0.720600000000     0          
C230     C      0.352490000000     0.536250000000     0.778100000000     0          
C231     C      0.421500000000     0.801450000000     0.724500000000     0          
C232     C      0.450790000000     0.848590000000     0.709100000000     0          
Zr233    Zr     0.463560000000     0.417400000000     0.509180000000     0          
O234     O      0.512600000000     0.544640000000     0.800010000000     0          
C235     C      0.520430000000     0.569750000000     0.879850000000     0          
N236     N      0.559230000000     0.562120000000     0.932030000000     0          
C237     C      0.567060000000     0.587230000000     0.011880000000     0          
C238     C      0.590210000000     0.529390000000     0.904350000000     0          
H239     H      0.493270000000     0.598460000000     0.904110000000     0          
O240     O      0.440300000000     0.478400000000     0.584800000000     0          
O241     O      0.518200000000     0.458900000000     0.565500000000     0          
O242     O      0.435500000000     0.376200000000     0.619200000000     0          
H243     H      0.585760000000     0.569760000000     0.078120000000     0          
H244     H      0.555230000000     0.626720000000     0.015650000000     0          
H245     H      0.624220000000     0.547770000000     0.874850000000     0          
H246     H      0.600050000000     0.505600000000     0.970340000000     0          
H247     H      0.573530000000     0.506100000000     0.843590000000     0          
H248     H      0.435500000000     0.416380000000     0.619200000000     0          
H249     H      0.500780000000     0.163860000000     0.011750000000     0          
H250     H      0.462360000000     0.137080000000     0.109740000000     0          
H251     H      0.562980000000     0.217770000000     0.792130000000     0          
H252     H      0.569450000000     0.221390000000     0.656670000000     0          
O253     O      0.940360000000     0.037100000000     0.265900000000     0          
O254     O      0.923910000000     0.383950000000     0.234800000000     0          
O255     O      0.001580000000     0.350220000000     0.211100000000     0          
O256     O      0.893200000000     0.048500000000     0.127600000000     0          
C257     C      0.823370000000     0.143430000000     0.249080000000     0          
N258     N      0.871560000000     0.157540000000     0.235120000000     0          
N259     N      0.883570000000     0.206740000000     0.231810000000     0          
C260     C      0.847400000000     0.241830000000     0.242470000000     0          
N261     N      0.799210000000     0.227730000000     0.256430000000     0          
N262     N      0.787190000000     0.178530000000     0.259730000000     0          
S263     S      0.808180000000     0.081190000000     0.253260000000     0          
S264     S      0.862590000000     0.304080000000     0.238280000000     0          
C265     C      0.898200000000     0.041200000000     0.220600000000     0          
C266     C      0.852490000000     0.036250000000     0.278100000000     0          
C267     C      0.921500000000     0.301450000000     0.224500000000     0          
C268     C      0.950790000000     0.348590000000     0.209100000000     0          
Zr269    Zr     0.963560000000     0.917400000000     0.009180000000     0          
O270     O      0.012600000000     0.044640000000     0.300010000000     0          
C271     C      0.020430000000     0.069750000000     0.379850000000     0          
N272     N      0.059230000000     0.062120000000     0.432030000000     0          
C273     C      0.067060000000     0.087230000000     0.511880000000     0          
C274     C      0.090210000000     0.029390000000     0.404350000000     0          
H275     H      0.993270000000     0.098460000000     0.404110000000     0          
O276     O      0.940300000000     0.978400000000     0.084800000000     0          
O277     O      0.018200000000     0.958900000000     0.065500000000     0          
O278     O      0.935500000000     0.876200000000     0.119200000000     0          
H279     H      0.085760000000     0.069760000000     0.578120000000     0          
H280     H      0.055230000000     0.126720000000     0.515650000000     0          
H281     H      0.124220000000     0.047770000000     0.374850000000     0          
H282     H      0.100050000000     0.005600000000     0.470340000000     0          
H283     H      0.073530000000     0.006100000000     0.343590000000     0          
H284     H      0.935500000000     0.916380000000     0.119200000000     0          
H285     H      0.000780000000     0.663860000000     0.511750000000     0          
H286     H      0.962360000000     0.637080000000     0.609740000000     0          
H287     H      0.062980000000     0.717770000000     0.292130000000     0          
H288     H      0.069450000000     0.721390000000     0.156670000000     0          
O289     O      0.962900000000     0.559640000000     0.515900000000     0          
O290     O      0.616050000000     0.576090000000     0.484800000000     0          
O291     O      0.649780000000     0.498420000000     0.461100000000     0          
O292     O      0.951500000000     0.606800000000     0.377600000000     0          
C293     C      0.856570000000     0.676630000000     0.499080000000     0          
N294     N      0.842460000000     0.628440000000     0.485120000000     0          
N295     N      0.793260000000     0.616430000000     0.481810000000     0          
C296     C      0.758170000000     0.652600000000     0.492470000000     0          
N297     N      0.772270000000     0.700790000000     0.506430000000     0          
N298     N      0.821470000000     0.712810000000     0.509730000000     0          
S299     S      0.918810000000     0.691820000000     0.503260000000     0          
S300     S      0.695920000000     0.637410000000     0.488280000000     0          
C301     C      0.958800000000     0.601800000000     0.470600000000     0          
C302     C      0.963750000000     0.647510000000     0.528100000000     0          
C303     C      0.698550000000     0.578500000000     0.474500000000     0          
C304     C      0.651410000000     0.549210000000     0.459100000000     0          
Zr305    Zr     0.082600000000     0.536440000000     0.259180000000     0          
O306     O      0.955360000000     0.487400000000     0.550010000000     0          
C307     C      0.930250000000     0.479570000000     0.629850000000     0          
N308     N      0.937880000000     0.440770000000     0.682030000000     0          
C309     C      0.912770000000     0.432940000000     0.761880000000     0          
C310     C      0.970610000000     0.409790000000     0.654350000000     0          
H311     H      0.901540000000     0.506730000000     0.654110000000     0          
O312     O      0.021600000000     0.559700000000     0.334800000000     0          
O313     O      0.041100000000     0.481800000000     0.315500000000     0          
O314     O      0.123800000000     0.564500000000     0.369200000000     0          
H315     H      0.930240000000     0.414240000000     0.828120000000     0          
H316     H      0.873280000000     0.444770000000     0.765650000000     0          
H317     H      0.952230000000     0.375780000000     0.624850000000     0          
H318     H      0.994400000000     0.399950000000     0.720340000000     0          
H319     H      0.993900000000     0.426470000000     0.593590000000     0          
H320     H      0.083620000000     0.564500000000     0.369200000000     0          
H321     H      0.336140000000     0.499220000000     0.761750000000     0          
H322     H      0.362920000000     0.537640000000     0.859740000000     0          
H323     H      0.282230000000     0.437020000000     0.542130000000     0          
H324     H      0.278610000000     0.430550000000     0.406670000000     0          
O325     O      0.462900000000     0.059640000000     0.015900000000     0          
O326     O      0.116050000000     0.076090000000     0.984800000000     0          
O327     O      0.149780000000     0.998420000000     0.961100000000     0          
O328     O      0.451500000000     0.106800000000     0.877600000000     0          
C329     C      0.356570000000     0.176630000000     0.999080000000     0          
N330     N      0.342460000000     0.128440000000     0.985120000000     0          
N331     N      0.293260000000     0.116430000000     0.981810000000     0          
C332     C      0.258170000000     0.152600000000     0.992470000000     0          
N333     N      0.272270000000     0.200790000000     0.006430000000     0          
N334     N      0.321470000000     0.212810000000     0.009730000000     0          
S335     S      0.418810000000     0.191820000000     0.003260000000     0          
S336     S      0.195920000000     0.137410000000     0.988280000000     0          
C337     C      0.458800000000     0.101800000000     0.970600000000     0          
C338     C      0.463750000000     0.147510000000     0.028100000000     0          
C339     C      0.198550000000     0.078500000000     0.974500000000     0          
C340     C      0.151410000000     0.049210000000     0.959100000000     0          
Zr341    Zr     0.582600000000     0.036440000000     0.759180000000     0          
O342     O      0.455360000000     0.987400000000     0.050010000000     0          
C343     C      0.430250000000     0.979570000000     0.129850000000     0          
N344     N      0.437880000000     0.940770000000     0.182030000000     0          
C345     C      0.412770000000     0.932940000000     0.261880000000     0          
C346     C      0.470610000000     0.909790000000     0.154350000000     0          
H347     H      0.401540000000     0.006730000000     0.154110000000     0          
O348     O      0.521600000000     0.059700000000     0.834800000000     0          
O349     O      0.541100000000     0.981800000000     0.815500000000     0          
O350     O      0.623800000000     0.064500000000     0.869200000000     0          
H351     H      0.430240000000     0.914240000000     0.328120000000     0          
H352     H      0.373280000000     0.944770000000     0.265650000000     0          
H353     H      0.452230000000     0.875780000000     0.124850000000     0          
H354     H      0.494400000000     0.899950000000     0.220340000000     0          
H355     H      0.493900000000     0.926470000000     0.093590000000     0          
H356     H      0.583620000000     0.064500000000     0.869200000000     0          
H357     H      0.836140000000     0.999220000000     0.261750000000     0          
H358     H      0.862920000000     0.037640000000     0.359740000000     0          
H359     H      0.782230000000     0.937020000000     0.042130000000     0          
H360     H      0.778610000000     0.930550000000     0.906670000000     0          
O361     O      0.037100000000     0.440360000000     0.515900000000     0          
O362     O      0.383950000000     0.423910000000     0.484800000000     0          
O363     O      0.350220000000     0.501580000000     0.461100000000     0          
O364     O      0.048500000000     0.393200000000     0.377600000000     0          
C365     C      0.143430000000     0.323370000000     0.499080000000     0          
N366     N      0.157540000000     0.371560000000     0.485120000000     0          
N367     N      0.206740000000     0.383570000000     0.481810000000     0          
C368     C      0.241830000000     0.347400000000     0.492470000000     0          
N369     N      0.227730000000     0.299210000000     0.506430000000     0          
N370     N      0.178530000000     0.287190000000     0.509730000000     0          
S371     S      0.081190000000     0.308180000000     0.503260000000     0          
S372     S      0.304080000000     0.362590000000     0.488280000000     0          
C373     C      0.041200000000     0.398200000000     0.470600000000     0          
C374     C      0.036250000000     0.352490000000     0.528100000000     0          
C375     C      0.301450000000     0.421500000000     0.474500000000     0          
C376     C      0.348590000000     0.450790000000     0.459100000000     0          
Zr377    Zr     0.917400000000     0.463560000000     0.259180000000     0          
O378     O      0.044640000000     0.512600000000     0.550010000000     0          
C379     C      0.069750000000     0.520430000000     0.629850000000     0          
N380     N      0.062120000000     0.559230000000     0.682030000000     0          
C381     C      0.087230000000     0.567060000000     0.761880000000     0          
C382     C      0.029390000000     0.590210000000     0.654350000000     0          
H383     H      0.098460000000     0.493270000000     0.654110000000     0          
O384     O      0.978400000000     0.440300000000     0.334800000000     0          
O385     O      0.958900000000     0.518200000000     0.315500000000     0          
O386     O      0.876200000000     0.435500000000     0.369200000000     0          
H387     H      0.069760000000     0.585760000000     0.828120000000     0          
H388     H      0.126720000000     0.555230000000     0.765650000000     0          
H389     H      0.047770000000     0.624220000000     0.624850000000     0          
H390     H      0.005600000000     0.600050000000     0.720340000000     0          
H391     H      0.006100000000     0.573530000000     0.593590000000     0          
H392     H      0.916380000000     0.435500000000     0.369200000000     0          
H393     H      0.663860000000     0.500780000000     0.761750000000     0          
H394     H      0.637080000000     0.462360000000     0.859740000000     0          
H395     H      0.717770000000     0.562980000000     0.542130000000     0          
H396     H      0.721390000000     0.569450000000     0.406670000000     0          
O397     O      0.537100000000     0.940360000000     0.015900000000     0          
O398     O      0.883950000000     0.923910000000     0.984800000000     0          
O399     O      0.850220000000     0.001580000000     0.961100000000     0          
O400     O      0.548500000000     0.893200000000     0.877600000000     0          
C401     C      0.643430000000     0.823370000000     0.999080000000     0          
N402     N      0.657540000000     0.871560000000     0.985120000000     0          
N403     N      0.706740000000     0.883570000000     0.981810000000     0          
C404     C      0.741830000000     0.847400000000     0.992470000000     0          
N405     N      0.727730000000     0.799210000000     0.006430000000     0          
N406     N      0.678530000000     0.787190000000     0.009730000000     0          
S407     S      0.581190000000     0.808180000000     0.003260000000     0          
S408     S      0.804080000000     0.862590000000     0.988280000000     0          
C409     C      0.541200000000     0.898200000000     0.970600000000     0          
C410     C      0.536250000000     0.852490000000     0.028100000000     0          
C411     C      0.801450000000     0.921500000000     0.974500000000     0          
C412     C      0.848590000000     0.950790000000     0.959100000000     0          
Zr413    Zr     0.417400000000     0.963560000000     0.759180000000     0          
O414     O      0.544640000000     0.012600000000     0.050010000000     0          
C415     C      0.569750000000     0.020430000000     0.129850000000     0          
N416     N      0.562120000000     0.059230000000     0.182030000000     0          
C417     C      0.587230000000     0.067060000000     0.261880000000     0          
C418     C      0.529390000000     0.090210000000     0.154350000000     0          
H419     H      0.598460000000     0.993270000000     0.154110000000     0          
O420     O      0.478400000000     0.940300000000     0.834800000000     0          
O421     O      0.458900000000     0.018200000000     0.815500000000     0          
O422     O      0.376200000000     0.935500000000     0.869200000000     0          
H423     H      0.569760000000     0.085760000000     0.328120000000     0          
H424     H      0.626720000000     0.055230000000     0.265650000000     0          
H425     H      0.547770000000     0.124220000000     0.124850000000     0          
H426     H      0.505600000000     0.100050000000     0.220340000000     0          
H427     H      0.506100000000     0.073530000000     0.093590000000     0          
H428     H      0.416380000000     0.935500000000     0.869200000000     0          
H429     H      0.163860000000     0.000780000000     0.261750000000     0          
H430     H      0.137080000000     0.962360000000     0.359740000000     0          
H431     H      0.217770000000     0.062980000000     0.042130000000     0          
H432     H      0.221390000000     0.069450000000     0.906670000000     0          
O433     O      0.940360000000     0.462900000000     0.984100000000     0          
O434     O      0.923910000000     0.116050000000     0.015200000000     0          
O435     O      0.001580000000     0.149780000000     0.038900000000     0          
O436     O      0.893200000000     0.451500000000     0.122400000000     0          
C437     C      0.823370000000     0.356570000000     0.000920000000     0          
N438     N      0.871560000000     0.342460000000     0.014880000000     0          
N439     N      0.883570000000     0.293260000000     0.018190000000     0          
C440     C      0.847400000000     0.258170000000     0.007530000000     0          
N441     N      0.799210000000     0.272270000000     0.993570000000     0          
N442     N      0.787190000000     0.321470000000     0.990270000000     0          
S443     S      0.808180000000     0.418810000000     0.996740000000     0          
S444     S      0.862590000000     0.195920000000     0.011720000000     0          
C445     C      0.898200000000     0.458800000000     0.029400000000     0          
C446     C      0.852490000000     0.463750000000     0.971900000000     0          
C447     C      0.921500000000     0.198550000000     0.025500000000     0          
C448     C      0.950790000000     0.151410000000     0.040900000000     0          
Zr449    Zr     0.963560000000     0.582600000000     0.240820000000     0          
O450     O      0.012600000000     0.455360000000     0.949990000000     0          
C451     C      0.020430000000     0.430250000000     0.870150000000     0          
N452     N      0.059230000000     0.437880000000     0.817970000000     0          
C453     C      0.067060000000     0.412770000000     0.738120000000     0          
C454     C      0.090210000000     0.470610000000     0.845650000000     0          
H455     H      0.993270000000     0.401540000000     0.845890000000     0          
O456     O      0.940300000000     0.521600000000     0.165200000000     0          
O457     O      0.018200000000     0.541100000000     0.184500000000     0          
O458     O      0.935500000000     0.623800000000     0.130800000000     0          
H459     H      0.085760000000     0.430240000000     0.671880000000     0          
H460     H      0.055230000000     0.373280000000     0.734350000000     0          
H461     H      0.124220000000     0.452230000000     0.875150000000     0          
H462     H      0.100050000000     0.494400000000     0.779660000000     0          
H463     H      0.073530000000     0.493900000000     0.906410000000     0          
H464     H      0.935500000000     0.583620000000     0.130800000000     0          
H465     H      0.000780000000     0.836140000000     0.738250000000     0          
H466     H      0.962360000000     0.862920000000     0.640260000000     0          
H467     H      0.062980000000     0.782230000000     0.957870000000     0          
H468     H      0.069450000000     0.778610000000     0.093330000000     0          
O469     O      0.440360000000     0.962900000000     0.484100000000     0          
O470     O      0.423910000000     0.616050000000     0.515200000000     0          
O471     O      0.501580000000     0.649780000000     0.538900000000     0          
O472     O      0.393200000000     0.951500000000     0.622400000000     0          
C473     C      0.323370000000     0.856570000000     0.500920000000     0          
N474     N      0.371560000000     0.842460000000     0.514880000000     0          
N475     N      0.383570000000     0.793260000000     0.518190000000     0          
C476     C      0.347400000000     0.758170000000     0.507530000000     0          
N477     N      0.299210000000     0.772270000000     0.493570000000     0          
N478     N      0.287190000000     0.821470000000     0.490270000000     0          
S479     S      0.308180000000     0.918810000000     0.496740000000     0          
S480     S      0.362590000000     0.695920000000     0.511720000000     0          
C481     C      0.398200000000     0.958800000000     0.529400000000     0          
C482     C      0.352490000000     0.963750000000     0.471900000000     0          
C483     C      0.421500000000     0.698550000000     0.525500000000     0          
C484     C      0.450790000000     0.651410000000     0.540900000000     0          
Zr485    Zr     0.463560000000     0.082600000000     0.740820000000     0          
O486     O      0.512600000000     0.955360000000     0.449990000000     0          
C487     C      0.520430000000     0.930250000000     0.370150000000     0          
N488     N      0.559230000000     0.937880000000     0.317970000000     0          
C489     C      0.567060000000     0.912770000000     0.238120000000     0          
C490     C      0.590210000000     0.970610000000     0.345650000000     0          
H491     H      0.493270000000     0.901540000000     0.345890000000     0          
O492     O      0.440300000000     0.021600000000     0.665200000000     0          
O493     O      0.518200000000     0.041100000000     0.684500000000     0          
O494     O      0.435500000000     0.123800000000     0.630800000000     0          
H495     H      0.585760000000     0.930240000000     0.171880000000     0          
H496     H      0.555230000000     0.873280000000     0.234350000000     0          
H497     H      0.624220000000     0.952230000000     0.375150000000     0          
H498     H      0.600050000000     0.994400000000     0.279660000000     0          
H499     H      0.573530000000     0.993900000000     0.406410000000     0          
H500     H      0.435500000000     0.083620000000     0.630800000000     0          
H501     H      0.500780000000     0.336140000000     0.238250000000     0          
H502     H      0.462360000000     0.362920000000     0.140260000000     0          
H503     H      0.562980000000     0.282230000000     0.457870000000     0          
H504     H      0.569450000000     0.278610000000     0.593330000000     0          
O505     O      0.059640000000     0.537100000000     0.984100000000     0          
O506     O      0.076090000000     0.883950000000     0.015200000000     0          
O507     O      0.998420000000     0.850220000000     0.038900000000     0          
O508     O      0.106800000000     0.548500000000     0.122400000000     0          
C509     C      0.176630000000     0.643430000000     0.000920000000     0          
N510     N      0.128440000000     0.657540000000     0.014880000000     0          
N511     N      0.116430000000     0.706740000000     0.018190000000     0          
C512     C      0.152600000000     0.741830000000     0.007530000000     0          
N513     N      0.200790000000     0.727730000000     0.993570000000     0          
N514     N      0.212810000000     0.678530000000     0.990270000000     0          
S515     S      0.191820000000     0.581190000000     0.996740000000     0          
S516     S      0.137410000000     0.804080000000     0.011720000000     0          
C517     C      0.101800000000     0.541200000000     0.029400000000     0          
C518     C      0.147510000000     0.536250000000     0.971900000000     0          
C519     C      0.078500000000     0.801450000000     0.025500000000     0          
C520     C      0.049210000000     0.848590000000     0.040900000000     0          
Zr521    Zr     0.036440000000     0.417400000000     0.240820000000     0          
O522     O      0.987400000000     0.544640000000     0.949990000000     0          
C523     C      0.979570000000     0.569750000000     0.870150000000     0          
N524     N      0.940770000000     0.562120000000     0.817970000000     0          
C525     C      0.932940000000     0.587230000000     0.738120000000     0          
C526     C      0.909790000000     0.529390000000     0.845650000000     0          
H527     H      0.006730000000     0.598460000000     0.845890000000     0          
O528     O      0.059700000000     0.478400000000     0.165200000000     0          
O529     O      0.981800000000     0.458900000000     0.184500000000     0          
O530     O      0.064500000000     0.376200000000     0.130800000000     0          
H531     H      0.914240000000     0.569760000000     0.671880000000     0          
H532     H      0.944770000000     0.626720000000     0.734350000000     0          
H533     H      0.875780000000     0.547770000000     0.875150000000     0          
H534     H      0.899950000000     0.505600000000     0.779660000000     0          
H535     H      0.926470000000     0.506100000000     0.906410000000     0          
H536     H      0.064500000000     0.416380000000     0.130800000000     0          
H537     H      0.999220000000     0.163860000000     0.738250000000     0          
H538     H      0.037640000000     0.137080000000     0.640260000000     0          
H539     H      0.937020000000     0.217770000000     0.957870000000     0          
H540     H      0.930550000000     0.221390000000     0.093330000000     0          
O541     O      0.559640000000     0.037100000000     0.484100000000     0          
O542     O      0.576090000000     0.383950000000     0.515200000000     0          
O543     O      0.498420000000     0.350220000000     0.538900000000     0          
O544     O      0.606800000000     0.048500000000     0.622400000000     0          
C545     C      0.676630000000     0.143430000000     0.500920000000     0          
N546     N      0.628440000000     0.157540000000     0.514880000000     0          
N547     N      0.616430000000     0.206740000000     0.518190000000     0          
C548     C      0.652600000000     0.241830000000     0.507530000000     0          
N549     N      0.700790000000     0.227730000000     0.493570000000     0          
N550     N      0.712810000000     0.178530000000     0.490270000000     0          
S551     S      0.691820000000     0.081190000000     0.496740000000     0          
S552     S      0.637410000000     0.304080000000     0.511720000000     0          
C553     C      0.601800000000     0.041200000000     0.529400000000     0          
C554     C      0.647510000000     0.036250000000     0.471900000000     0          
C555     C      0.578500000000     0.301450000000     0.525500000000     0          
C556     C      0.549210000000     0.348590000000     0.540900000000     0          
Zr557    Zr     0.536440000000     0.917400000000     0.740820000000     0          
O558     O      0.487400000000     0.044640000000     0.449990000000     0          
C559     C      0.479570000000     0.069750000000     0.370150000000     0          
N560     N      0.440770000000     0.062120000000     0.317970000000     0          
C561     C      0.432940000000     0.087230000000     0.238120000000     0          
C562     C      0.409790000000     0.029390000000     0.345650000000     0          
H563     H      0.506730000000     0.098460000000     0.345890000000     0          
O564     O      0.559700000000     0.978400000000     0.665200000000     0          
O565     O      0.481800000000     0.958900000000     0.684500000000     0          
O566     O      0.564500000000     0.876200000000     0.630800000000     0          
H567     H      0.414240000000     0.069760000000     0.171880000000     0          
H568     H      0.444770000000     0.126720000000     0.234350000000     0          
H569     H      0.375780000000     0.047770000000     0.375150000000     0          
H570     H      0.399950000000     0.005600000000     0.279660000000     0          
H571     H      0.426470000000     0.006100000000     0.406410000000     0          
H572     H      0.564500000000     0.916380000000     0.630800000000     0          
H573     H      0.499220000000     0.663860000000     0.238250000000     0          
H574     H      0.537640000000     0.637080000000     0.140260000000     0          
H575     H      0.437020000000     0.717770000000     0.457870000000     0          
H576     H      0.430550000000     0.721390000000     0.593330000000     0          
Zr577    Zr     0.500000000000     0.500000000000     0.313990000000     0          
Zr578    Zr     0.000000000000     0.000000000000     0.813990000000     0          
Zr579    Zr     0.500000000000     0.500000000000     0.686010000000     0          
Zr580    Zr     0.000000000000     0.000000000000     0.186010000000     0          
Zr581    Zr     0.000000000000     0.500000000000     0.436010000000     0          
Zr582    Zr     0.500000000000     0.000000000000     0.936010000000     0          
Zr583    Zr     0.000000000000     0.500000000000     0.063990000000     0          
Zr584    Zr     0.500000000000     0.000000000000     0.563990000000     0          


