data_ZATPOC

_audit_creation_method RASPA-1.0
_audit_creation_date 2020-11-2
_audit_author_name 'Rocio Bueno-Perez'

_cell_length_a    26.1084
_cell_length_b    26.1084
_cell_length_c    14.3685
_cell_angle_alpha 90
_cell_angle_beta  90
_cell_angle_gamma 90
_cell_volume      9794.27

_symmetry_cell_setting          triclinic
_symmetry_space_group_name_Hall 'P 1'
_symmetry_space_group_name_H-M  'P 1'
_symmetry_Int_Tables_number     1

_symmetry_equiv_pos_as_xyz 'x,y,z'

loop_
_atom_site_label
_atom_site_type_symbol
_atom_site_fract_x
_atom_site_fract_y
_atom_site_fract_z
_atom_site_charge
O1       O      0.524500000000     0.571470000000     0.255590000000     0          
O2       O      0.884350000000     0.598120000000     0.244000000000     0          
O3       O      0.846150000000     0.523620000000     0.241600000000     0          
O4       O      0.537080000000     0.623500000000     0.362190000000     0          
C5       C      0.631090000000     0.694390000000     0.250850000000     0          
N6       N      0.648350000000     0.644300000000     0.261780000000     0          
N7       N      0.700580000000     0.634400000000     0.268950000000     0          
C8       C      0.735560000000     0.674570000000     0.265180000000     0          
N9       N      0.718310000000     0.724660000000     0.254260000000     0          
N10      N      0.666070000000     0.734560000000     0.247090000000     0          
S11      S      0.567290000000     0.706480000000     0.242100000000     0          
S12      S      0.799360000000     0.662480000000     0.273930000000     0          
C13      C      0.538510000000     0.611970000000     0.276500000000     0          
C14      C      0.529020000000     0.654670000000     0.213160000000     0          
C15      C      0.791660000000     0.594010000000     0.281200000000     0          
C16      C      0.844510000000     0.570600000000     0.262600000000     0          
Zr17     Zr     0.969760000000     0.593560000000     0.250610000000     0          
O18      O      0.943780000000     0.639350000000     0.132830000000     0          
C19      C      0.961930000000     0.680020000000     0.092390000000     0          
N20      N      0.938860000000     0.698990000000     0.019990000000     0          
C21      C      0.957010000000     0.739660000000     0.979550000000     0          
C22      C      0.897650000000     0.677270000000     0.988040000000     0          
H23      H      0.993000000000     0.696390000000     0.116480000000     0          
O24      O      0.471880000000     0.557060000000     0.415400000000     0          
O25      O      0.449640000000     0.473180000000     0.425720000000     0          
O26      O      0.554790000000     0.481980000000     0.202410000000     0          
C27      C      0.549580000000     0.478170000000     0.112700000000     0          
N28      N      0.572420000000     0.441450000000     0.067850000000     0          
C29      C      0.567210000000     0.437640000000     0.978130000000     0          
C30      C      0.600480000000     0.408550000000     0.112700000000     0          
H31      H      0.528430000000     0.502970000000     0.078890000000     0          
H32      H      0.333620000000     0.487040000000     0.782110000000     0          
H33      H      0.358030000000     0.537960000000     0.860990000000     0          
H34      H      0.263240000000     0.419580000000     0.523740000000     0          
H35      H      0.277310000000     0.416720000000     0.396450000000     0          
O36      O      0.024500000000     0.071470000000     0.755590000000     0          
O37      O      0.384350000000     0.098120000000     0.744000000000     0          
O38      O      0.346150000000     0.023620000000     0.741600000000     0          
O39      O      0.037080000000     0.123500000000     0.862190000000     0          
C40      C      0.131090000000     0.194390000000     0.750850000000     0          
N41      N      0.148350000000     0.144300000000     0.761780000000     0          
N42      N      0.200580000000     0.134400000000     0.768950000000     0          
C43      C      0.235560000000     0.174570000000     0.765180000000     0          
N44      N      0.218310000000     0.224660000000     0.754260000000     0          
N45      N      0.166070000000     0.234560000000     0.747090000000     0          
S46      S      0.067290000000     0.206480000000     0.742100000000     0          
S47      S      0.299360000000     0.162480000000     0.773930000000     0          
C48      C      0.038510000000     0.111970000000     0.776500000000     0          
C49      C      0.029020000000     0.154670000000     0.713160000000     0          
C50      C      0.291660000000     0.094010000000     0.781200000000     0          
C51      C      0.344510000000     0.070600000000     0.762600000000     0          
Zr52     Zr     0.469760000000     0.093560000000     0.750610000000     0          
O53      O      0.443780000000     0.139350000000     0.632830000000     0          
C54      C      0.461930000000     0.180020000000     0.592390000000     0          
N55      N      0.438860000000     0.198990000000     0.519990000000     0          
C56      C      0.457010000000     0.239660000000     0.479550000000     0          
C57      C      0.397650000000     0.177270000000     0.488040000000     0          
H58      H      0.493000000000     0.196390000000     0.616480000000     0          
O59      O      0.971880000000     0.057060000000     0.915400000000     0          
O60      O      0.949640000000     0.973180000000     0.925720000000     0          
O61      O      0.054790000000     0.981980000000     0.702410000000     0          
C62      C      0.049580000000     0.978170000000     0.612700000000     0          
N63      N      0.072420000000     0.941450000000     0.567850000000     0          
C64      C      0.067210000000     0.937640000000     0.478130000000     0          
C65      C      0.100480000000     0.908550000000     0.612700000000     0          
H66      H      0.028430000000     0.002970000000     0.578890000000     0          
H67      H      0.833620000000     0.987040000000     0.282110000000     0          
H68      H      0.858030000000     0.037960000000     0.360990000000     0          
H69      H      0.763240000000     0.919580000000     0.023740000000     0          
H70      H      0.777310000000     0.916720000000     0.896450000000     0          
O71      O      0.475500000000     0.428530000000     0.255590000000     0          
O72      O      0.115650000000     0.401880000000     0.244000000000     0          
O73      O      0.153850000000     0.476380000000     0.241600000000     0          
O74      O      0.462920000000     0.376500000000     0.362190000000     0          
C75      C      0.368910000000     0.305610000000     0.250850000000     0          
N76      N      0.351650000000     0.355700000000     0.261780000000     0          
N77      N      0.299420000000     0.365600000000     0.268950000000     0          
C78      C      0.264440000000     0.325430000000     0.265180000000     0          
N79      N      0.281690000000     0.275340000000     0.254260000000     0          
N80      N      0.333930000000     0.265440000000     0.247090000000     0          
S81      S      0.432710000000     0.293520000000     0.242100000000     0          
S82      S      0.200640000000     0.337520000000     0.273930000000     0          
C83      C      0.461490000000     0.388030000000     0.276500000000     0          
C84      C      0.470980000000     0.345330000000     0.213160000000     0          
C85      C      0.208340000000     0.405990000000     0.281200000000     0          
C86      C      0.155490000000     0.429400000000     0.262600000000     0          
Zr87     Zr     0.030240000000     0.406440000000     0.250610000000     0          
O88      O      0.056220000000     0.360650000000     0.132830000000     0          
C89      C      0.038070000000     0.319980000000     0.092390000000     0          
N90      N      0.061140000000     0.301010000000     0.019990000000     0          
C91      C      0.042990000000     0.260340000000     0.979550000000     0          
C92      C      0.102350000000     0.322730000000     0.988040000000     0          
H93      H      0.007000000000     0.303610000000     0.116480000000     0          
O94      O      0.528120000000     0.442940000000     0.415400000000     0          
O95      O      0.550360000000     0.526820000000     0.425720000000     0          
O96      O      0.445210000000     0.518020000000     0.202410000000     0          
C97      C      0.450420000000     0.521830000000     0.112700000000     0          
N98      N      0.427580000000     0.558550000000     0.067850000000     0          
C99      C      0.432790000000     0.562360000000     0.978130000000     0          
C100     C      0.399520000000     0.591450000000     0.112700000000     0          
H101     H      0.471570000000     0.497030000000     0.078890000000     0          
H102     H      0.666380000000     0.512960000000     0.782110000000     0          
H103     H      0.641970000000     0.462040000000     0.860990000000     0          
H104     H      0.736760000000     0.580420000000     0.523740000000     0          
H105     H      0.722690000000     0.583280000000     0.396450000000     0          
O106     O      0.975500000000     0.928530000000     0.755590000000     0          
O107     O      0.615650000000     0.901880000000     0.744000000000     0          
O108     O      0.653850000000     0.976380000000     0.741600000000     0          
O109     O      0.962920000000     0.876500000000     0.862190000000     0          
C110     C      0.868910000000     0.805610000000     0.750850000000     0          
N111     N      0.851650000000     0.855700000000     0.761780000000     0          
N112     N      0.799420000000     0.865600000000     0.768950000000     0          
C113     C      0.764440000000     0.825430000000     0.765180000000     0          
N114     N      0.781690000000     0.775340000000     0.754260000000     0          
N115     N      0.833930000000     0.765440000000     0.747090000000     0          
S116     S      0.932710000000     0.793520000000     0.742100000000     0          
S117     S      0.700640000000     0.837520000000     0.773930000000     0          
C118     C      0.961490000000     0.888030000000     0.776500000000     0          
C119     C      0.970980000000     0.845330000000     0.713160000000     0          
C120     C      0.708340000000     0.905990000000     0.781200000000     0          
C121     C      0.655490000000     0.929400000000     0.762600000000     0          
Zr122    Zr     0.530240000000     0.906440000000     0.750610000000     0          
O123     O      0.556220000000     0.860650000000     0.632830000000     0          
C124     C      0.538070000000     0.819980000000     0.592390000000     0          
N125     N      0.561140000000     0.801010000000     0.519990000000     0          
C126     C      0.542990000000     0.760340000000     0.479550000000     0          
C127     C      0.602350000000     0.822730000000     0.488040000000     0          
H128     H      0.507000000000     0.803610000000     0.616480000000     0          
O129     O      0.028120000000     0.942940000000     0.915400000000     0          
O130     O      0.050360000000     0.026820000000     0.925720000000     0          
O131     O      0.945210000000     0.018020000000     0.702410000000     0          
C132     C      0.950420000000     0.021830000000     0.612700000000     0          
N133     N      0.927580000000     0.058550000000     0.567850000000     0          
C134     C      0.932790000000     0.062360000000     0.478130000000     0          
C135     C      0.899520000000     0.091450000000     0.612700000000     0          
H136     H      0.971570000000     0.997030000000     0.578890000000     0          
H137     H      0.166380000000     0.012960000000     0.282110000000     0          
H138     H      0.141970000000     0.962040000000     0.360990000000     0          
H139     H      0.236760000000     0.080420000000     0.023740000000     0          
H140     H      0.222690000000     0.083280000000     0.896450000000     0          
O141     O      0.571470000000     0.475500000000     0.744410000000     0          
O142     O      0.598120000000     0.115650000000     0.756000000000     0          
O143     O      0.523620000000     0.153850000000     0.758400000000     0          
O144     O      0.623500000000     0.462920000000     0.637810000000     0          
C145     C      0.694390000000     0.368910000000     0.749150000000     0          
N146     N      0.644300000000     0.351650000000     0.738220000000     0          
N147     N      0.634400000000     0.299420000000     0.731050000000     0          
C148     C      0.674570000000     0.264440000000     0.734820000000     0          
N149     N      0.724660000000     0.281690000000     0.745740000000     0          
N150     N      0.734560000000     0.333930000000     0.752910000000     0          
S151     S      0.706480000000     0.432710000000     0.757900000000     0          
S152     S      0.662480000000     0.200640000000     0.726070000000     0          
C153     C      0.611970000000     0.461490000000     0.723500000000     0          
C154     C      0.654670000000     0.470980000000     0.786840000000     0          
C155     C      0.594010000000     0.208340000000     0.718800000000     0          
C156     C      0.570600000000     0.155490000000     0.737400000000     0          
Zr157    Zr     0.593560000000     0.030240000000     0.749390000000     0          
O158     O      0.639350000000     0.056220000000     0.867170000000     0          
C159     C      0.680020000000     0.038070000000     0.907610000000     0          
N160     N      0.698990000000     0.061140000000     0.980010000000     0          
C161     C      0.739660000000     0.042990000000     0.020450000000     0          
C162     C      0.677270000000     0.102350000000     0.011960000000     0          
H163     H      0.696390000000     0.007000000000     0.883520000000     0          
O164     O      0.557060000000     0.528120000000     0.584600000000     0          
O165     O      0.473180000000     0.550360000000     0.574280000000     0          
O166     O      0.481980000000     0.445210000000     0.797590000000     0          
C167     C      0.478170000000     0.450420000000     0.887300000000     0          
N168     N      0.441450000000     0.427580000000     0.932150000000     0          
C169     C      0.437640000000     0.432790000000     0.021870000000     0          
C170     C      0.408550000000     0.399520000000     0.887300000000     0          
H171     H      0.502970000000     0.471570000000     0.921110000000     0          
H172     H      0.487040000000     0.666380000000     0.217890000000     0          
H173     H      0.537960000000     0.641970000000     0.139010000000     0          
H174     H      0.419580000000     0.736760000000     0.476260000000     0          
H175     H      0.416720000000     0.722690000000     0.603550000000     0          
O176     O      0.071470000000     0.975500000000     0.244410000000     0          
O177     O      0.098120000000     0.615650000000     0.256000000000     0          
O178     O      0.023620000000     0.653850000000     0.258400000000     0          
O179     O      0.123500000000     0.962920000000     0.137810000000     0          
C180     C      0.194390000000     0.868910000000     0.249150000000     0          
N181     N      0.144300000000     0.851650000000     0.238220000000     0          
N182     N      0.134400000000     0.799420000000     0.231050000000     0          
C183     C      0.174570000000     0.764440000000     0.234820000000     0          
N184     N      0.224660000000     0.781690000000     0.245740000000     0          
N185     N      0.234560000000     0.833930000000     0.252910000000     0          
S186     S      0.206480000000     0.932710000000     0.257900000000     0          
S187     S      0.162480000000     0.700640000000     0.226070000000     0          
C188     C      0.111970000000     0.961490000000     0.223500000000     0          
C189     C      0.154670000000     0.970980000000     0.286840000000     0          
C190     C      0.094010000000     0.708340000000     0.218800000000     0          
C191     C      0.070600000000     0.655490000000     0.237400000000     0          
Zr192    Zr     0.093560000000     0.530240000000     0.249390000000     0          
O193     O      0.139350000000     0.556220000000     0.367170000000     0          
C194     C      0.180020000000     0.538070000000     0.407610000000     0          
N195     N      0.198990000000     0.561140000000     0.480010000000     0          
C196     C      0.239660000000     0.542990000000     0.520450000000     0          
C197     C      0.177270000000     0.602350000000     0.511960000000     0          
H198     H      0.196390000000     0.507000000000     0.383520000000     0          
O199     O      0.057060000000     0.028120000000     0.084600000000     0          
O200     O      0.973180000000     0.050360000000     0.074280000000     0          
O201     O      0.981980000000     0.945210000000     0.297590000000     0          
C202     C      0.978170000000     0.950420000000     0.387300000000     0          
N203     N      0.941450000000     0.927580000000     0.432150000000     0          
C204     C      0.937640000000     0.932790000000     0.521870000000     0          
C205     C      0.908550000000     0.899520000000     0.387300000000     0          
H206     H      0.002970000000     0.971570000000     0.421110000000     0          
H207     H      0.987040000000     0.166380000000     0.717890000000     0          
H208     H      0.037960000000     0.141970000000     0.639010000000     0          
H209     H      0.919580000000     0.236760000000     0.976260000000     0          
H210     H      0.916720000000     0.222690000000     0.103550000000     0          
O211     O      0.428530000000     0.524500000000     0.744410000000     0          
O212     O      0.401880000000     0.884350000000     0.756000000000     0          
O213     O      0.476380000000     0.846150000000     0.758400000000     0          
O214     O      0.376500000000     0.537080000000     0.637810000000     0          
C215     C      0.305610000000     0.631090000000     0.749150000000     0          
N216     N      0.355700000000     0.648350000000     0.738220000000     0          
N217     N      0.365600000000     0.700580000000     0.731050000000     0          
C218     C      0.325430000000     0.735560000000     0.734820000000     0          
N219     N      0.275340000000     0.718310000000     0.745740000000     0          
N220     N      0.265440000000     0.666070000000     0.752910000000     0          
S221     S      0.293520000000     0.567290000000     0.757900000000     0          
S222     S      0.337520000000     0.799360000000     0.726070000000     0          
C223     C      0.388030000000     0.538510000000     0.723500000000     0          
C224     C      0.345330000000     0.529020000000     0.786840000000     0          
C225     C      0.405990000000     0.791660000000     0.718800000000     0          
C226     C      0.429400000000     0.844510000000     0.737400000000     0          
Zr227    Zr     0.406440000000     0.969760000000     0.749390000000     0          
O228     O      0.360650000000     0.943780000000     0.867170000000     0          
C229     C      0.319980000000     0.961930000000     0.907610000000     0          
N230     N      0.301010000000     0.938860000000     0.980010000000     0          
C231     C      0.260340000000     0.957010000000     0.020450000000     0          
C232     C      0.322730000000     0.897650000000     0.011960000000     0          
H233     H      0.303610000000     0.993000000000     0.883520000000     0          
O234     O      0.442940000000     0.471880000000     0.584600000000     0          
O235     O      0.526820000000     0.449640000000     0.574280000000     0          
O236     O      0.518020000000     0.554790000000     0.797590000000     0          
C237     C      0.521830000000     0.549580000000     0.887300000000     0          
N238     N      0.558550000000     0.572420000000     0.932150000000     0          
C239     C      0.562360000000     0.567210000000     0.021870000000     0          
C240     C      0.591450000000     0.600480000000     0.887300000000     0          
H241     H      0.497030000000     0.528430000000     0.921110000000     0          
H242     H      0.512960000000     0.333620000000     0.217890000000     0          
H243     H      0.462040000000     0.358030000000     0.139010000000     0          
H244     H      0.580420000000     0.263240000000     0.476260000000     0          
H245     H      0.583280000000     0.277310000000     0.603550000000     0          
O246     O      0.928530000000     0.024500000000     0.244410000000     0          
O247     O      0.901880000000     0.384350000000     0.256000000000     0          
O248     O      0.976380000000     0.346150000000     0.258400000000     0          
O249     O      0.876500000000     0.037080000000     0.137810000000     0          
C250     C      0.805610000000     0.131090000000     0.249150000000     0          
N251     N      0.855700000000     0.148350000000     0.238220000000     0          
N252     N      0.865600000000     0.200580000000     0.231050000000     0          
C253     C      0.825430000000     0.235560000000     0.234820000000     0          
N254     N      0.775340000000     0.218310000000     0.245740000000     0          
N255     N      0.765440000000     0.166070000000     0.252910000000     0          
S256     S      0.793520000000     0.067290000000     0.257900000000     0          
S257     S      0.837520000000     0.299360000000     0.226070000000     0          
C258     C      0.888030000000     0.038510000000     0.223500000000     0          
C259     C      0.845330000000     0.029020000000     0.286840000000     0          
C260     C      0.905990000000     0.291660000000     0.218800000000     0          
C261     C      0.929400000000     0.344510000000     0.237400000000     0          
Zr262    Zr     0.906440000000     0.469760000000     0.249390000000     0          
O263     O      0.860650000000     0.443780000000     0.367170000000     0          
C264     C      0.819980000000     0.461930000000     0.407610000000     0          
N265     N      0.801010000000     0.438860000000     0.480010000000     0          
C266     C      0.760340000000     0.457010000000     0.520450000000     0          
C267     C      0.822730000000     0.397650000000     0.511960000000     0          
H268     H      0.803610000000     0.493000000000     0.383520000000     0          
O269     O      0.942940000000     0.971880000000     0.084600000000     0          
O270     O      0.026820000000     0.949640000000     0.074280000000     0          
O271     O      0.018020000000     0.054790000000     0.297590000000     0          
C272     C      0.021830000000     0.049580000000     0.387300000000     0          
N273     N      0.058550000000     0.072420000000     0.432150000000     0          
C274     C      0.062360000000     0.067210000000     0.521870000000     0          
C275     C      0.091450000000     0.100480000000     0.387300000000     0          
H276     H      0.997030000000     0.028430000000     0.421110000000     0          
H277     H      0.012960000000     0.833620000000     0.717890000000     0          
H278     H      0.962040000000     0.858030000000     0.639010000000     0          
H279     H      0.080420000000     0.763240000000     0.976260000000     0          
H280     H      0.083280000000     0.777310000000     0.103550000000     0          
O281     O      0.975500000000     0.571470000000     0.494410000000     0          
O282     O      0.615650000000     0.598120000000     0.506000000000     0          
O283     O      0.653850000000     0.523620000000     0.508400000000     0          
O284     O      0.962920000000     0.623500000000     0.387810000000     0          
C285     C      0.868910000000     0.694390000000     0.499150000000     0          
N286     N      0.851650000000     0.644300000000     0.488220000000     0          
N287     N      0.799420000000     0.634400000000     0.481050000000     0          
C288     C      0.764440000000     0.674570000000     0.484820000000     0          
N289     N      0.781690000000     0.724660000000     0.495740000000     0          
N290     N      0.833930000000     0.734560000000     0.502910000000     0          
S291     S      0.932710000000     0.706480000000     0.507900000000     0          
S292     S      0.700640000000     0.662480000000     0.476070000000     0          
C293     C      0.961490000000     0.611970000000     0.473500000000     0          
C294     C      0.970980000000     0.654670000000     0.536840000000     0          
C295     C      0.708340000000     0.594010000000     0.468800000000     0          
C296     C      0.655490000000     0.570600000000     0.487400000000     0          
Zr297    Zr     0.530240000000     0.593560000000     0.499390000000     0          
O298     O      0.556220000000     0.639350000000     0.617170000000     0          
C299     C      0.538070000000     0.680020000000     0.657610000000     0          
N300     N      0.561140000000     0.698990000000     0.730010000000     0          
C301     C      0.542990000000     0.739660000000     0.770450000000     0          
C302     C      0.602350000000     0.677270000000     0.761960000000     0          
H303     H      0.507000000000     0.696390000000     0.633520000000     0          
O304     O      0.028120000000     0.557060000000     0.334600000000     0          
O305     O      0.050360000000     0.473180000000     0.324280000000     0          
O306     O      0.945210000000     0.481980000000     0.547590000000     0          
C307     C      0.950420000000     0.478170000000     0.637300000000     0          
N308     N      0.927580000000     0.441450000000     0.682150000000     0          
C309     C      0.932790000000     0.437640000000     0.771870000000     0          
C310     C      0.899520000000     0.408550000000     0.637300000000     0          
H311     H      0.971570000000     0.502970000000     0.671110000000     0          
H312     H      0.166380000000     0.487040000000     0.967890000000     0          
H313     H      0.141970000000     0.537960000000     0.889010000000     0          
H314     H      0.236760000000     0.419580000000     0.226260000000     0          
H315     H      0.222690000000     0.416720000000     0.353550000000     0          
O316     O      0.475500000000     0.071470000000     0.994410000000     0          
O317     O      0.115650000000     0.098120000000     0.006000000000     0          
O318     O      0.153850000000     0.023620000000     0.008400000000     0          
O319     O      0.462920000000     0.123500000000     0.887810000000     0          
C320     C      0.368910000000     0.194390000000     0.999150000000     0          
N321     N      0.351650000000     0.144300000000     0.988220000000     0          
N322     N      0.299420000000     0.134400000000     0.981050000000     0          
C323     C      0.264440000000     0.174570000000     0.984820000000     0          
N324     N      0.281690000000     0.224660000000     0.995740000000     0          
N325     N      0.333930000000     0.234560000000     0.002910000000     0          
S326     S      0.432710000000     0.206480000000     0.007900000000     0          
S327     S      0.200640000000     0.162480000000     0.976070000000     0          
C328     C      0.461490000000     0.111970000000     0.973500000000     0          
C329     C      0.470980000000     0.154670000000     0.036840000000     0          
C330     C      0.208340000000     0.094010000000     0.968800000000     0          
C331     C      0.155490000000     0.070600000000     0.987400000000     0          
Zr332    Zr     0.030240000000     0.093560000000     0.999390000000     0          
O333     O      0.056220000000     0.139350000000     0.117170000000     0          
C334     C      0.038070000000     0.180020000000     0.157610000000     0          
N335     N      0.061140000000     0.198990000000     0.230010000000     0          
C336     C      0.042990000000     0.239660000000     0.270450000000     0          
C337     C      0.102350000000     0.177270000000     0.261960000000     0          
H338     H      0.007000000000     0.196390000000     0.133520000000     0          
O339     O      0.528120000000     0.057060000000     0.834600000000     0          
O340     O      0.550360000000     0.973180000000     0.824280000000     0          
O341     O      0.445210000000     0.981980000000     0.047590000000     0          
C342     C      0.450420000000     0.978170000000     0.137300000000     0          
N343     N      0.427580000000     0.941450000000     0.182150000000     0          
C344     C      0.432790000000     0.937640000000     0.271870000000     0          
C345     C      0.399520000000     0.908550000000     0.137300000000     0          
H346     H      0.471570000000     0.002970000000     0.171110000000     0          
H347     H      0.666380000000     0.987040000000     0.467890000000     0          
H348     H      0.641970000000     0.037960000000     0.389010000000     0          
H349     H      0.736760000000     0.919580000000     0.726260000000     0          
H350     H      0.722690000000     0.916720000000     0.853550000000     0          
O351     O      0.024500000000     0.428530000000     0.494410000000     0          
O352     O      0.384350000000     0.401880000000     0.506000000000     0          
O353     O      0.346150000000     0.476380000000     0.508400000000     0          
O354     O      0.037080000000     0.376500000000     0.387810000000     0          
C355     C      0.131090000000     0.305610000000     0.499150000000     0          
N356     N      0.148350000000     0.355700000000     0.488220000000     0          
N357     N      0.200580000000     0.365600000000     0.481050000000     0          
C358     C      0.235560000000     0.325430000000     0.484820000000     0          
N359     N      0.218310000000     0.275340000000     0.495740000000     0          
N360     N      0.166070000000     0.265440000000     0.502910000000     0          
S361     S      0.067290000000     0.293520000000     0.507900000000     0          
S362     S      0.299360000000     0.337520000000     0.476070000000     0          
C363     C      0.038510000000     0.388030000000     0.473500000000     0          
C364     C      0.029020000000     0.345330000000     0.536840000000     0          
C365     C      0.291660000000     0.405990000000     0.468800000000     0          
C366     C      0.344510000000     0.429400000000     0.487400000000     0          
Zr367    Zr     0.469760000000     0.406440000000     0.499390000000     0          
O368     O      0.443780000000     0.360650000000     0.617170000000     0          
C369     C      0.461930000000     0.319980000000     0.657610000000     0          
N370     N      0.438860000000     0.301010000000     0.730010000000     0          
C371     C      0.457010000000     0.260340000000     0.770450000000     0          
C372     C      0.397650000000     0.322730000000     0.761960000000     0          
H373     H      0.493000000000     0.303610000000     0.633520000000     0          
O374     O      0.971880000000     0.442940000000     0.334600000000     0          
O375     O      0.949640000000     0.526820000000     0.324280000000     0          
O376     O      0.054790000000     0.518020000000     0.547590000000     0          
C377     C      0.049580000000     0.521830000000     0.637300000000     0          
N378     N      0.072420000000     0.558550000000     0.682150000000     0          
C379     C      0.067210000000     0.562360000000     0.771870000000     0          
C380     C      0.100480000000     0.591450000000     0.637300000000     0          
H381     H      0.028430000000     0.497030000000     0.671110000000     0          
H382     H      0.833620000000     0.512960000000     0.967890000000     0          
H383     H      0.858030000000     0.462040000000     0.889010000000     0          
H384     H      0.763240000000     0.580420000000     0.226260000000     0          
H385     H      0.777310000000     0.583280000000     0.353550000000     0          
O386     O      0.524500000000     0.928530000000     0.994410000000     0          
O387     O      0.884350000000     0.901880000000     0.006000000000     0          
O388     O      0.846150000000     0.976380000000     0.008400000000     0          
O389     O      0.537080000000     0.876500000000     0.887810000000     0          
C390     C      0.631090000000     0.805610000000     0.999150000000     0          
N391     N      0.648350000000     0.855700000000     0.988220000000     0          
N392     N      0.700580000000     0.865600000000     0.981050000000     0          
C393     C      0.735560000000     0.825430000000     0.984820000000     0          
N394     N      0.718310000000     0.775340000000     0.995740000000     0          
N395     N      0.666070000000     0.765440000000     0.002910000000     0          
S396     S      0.567290000000     0.793520000000     0.007900000000     0          
S397     S      0.799360000000     0.837520000000     0.976070000000     0          
C398     C      0.538510000000     0.888030000000     0.973500000000     0          
C399     C      0.529020000000     0.845330000000     0.036840000000     0          
C400     C      0.791660000000     0.905990000000     0.968800000000     0          
C401     C      0.844510000000     0.929400000000     0.987400000000     0          
Zr402    Zr     0.969760000000     0.906440000000     0.999390000000     0          
O403     O      0.943780000000     0.860650000000     0.117170000000     0          
C404     C      0.961930000000     0.819980000000     0.157610000000     0          
N405     N      0.938860000000     0.801010000000     0.230010000000     0          
C406     C      0.957010000000     0.760340000000     0.270450000000     0          
C407     C      0.897650000000     0.822730000000     0.261960000000     0          
H408     H      0.993000000000     0.803610000000     0.133520000000     0          
O409     O      0.471880000000     0.942940000000     0.834600000000     0          
O410     O      0.449640000000     0.026820000000     0.824280000000     0          
O411     O      0.554790000000     0.018020000000     0.047590000000     0          
C412     C      0.549580000000     0.021830000000     0.137300000000     0          
N413     N      0.572420000000     0.058550000000     0.182150000000     0          
C414     C      0.567210000000     0.062360000000     0.271870000000     0          
C415     C      0.600480000000     0.091450000000     0.137300000000     0          
H416     H      0.528430000000     0.997030000000     0.171110000000     0          
H417     H      0.333620000000     0.012960000000     0.467890000000     0          
H418     H      0.358030000000     0.962040000000     0.389010000000     0          
H419     H      0.263240000000     0.080420000000     0.726260000000     0          
H420     H      0.277310000000     0.083280000000     0.853550000000     0          
O421     O      0.928530000000     0.475500000000     0.005590000000     0          
O422     O      0.901880000000     0.115650000000     0.994000000000     0          
O423     O      0.976380000000     0.153850000000     0.991600000000     0          
O424     O      0.876500000000     0.462920000000     0.112190000000     0          
C425     C      0.805610000000     0.368910000000     0.000850000000     0          
N426     N      0.855700000000     0.351650000000     0.011780000000     0          
N427     N      0.865600000000     0.299420000000     0.018950000000     0          
C428     C      0.825430000000     0.264440000000     0.015180000000     0          
N429     N      0.775340000000     0.281690000000     0.004260000000     0          
N430     N      0.765440000000     0.333930000000     0.997090000000     0          
S431     S      0.793520000000     0.432710000000     0.992100000000     0          
S432     S      0.837520000000     0.200640000000     0.023930000000     0          
C433     C      0.888030000000     0.461490000000     0.026500000000     0          
C434     C      0.845330000000     0.470980000000     0.963160000000     0          
C435     C      0.905990000000     0.208340000000     0.031200000000     0          
C436     C      0.929400000000     0.155490000000     0.012600000000     0          
Zr437    Zr     0.906440000000     0.030240000000     0.000610000000     0          
O438     O      0.860650000000     0.056220000000     0.882830000000     0          
C439     C      0.819980000000     0.038070000000     0.842390000000     0          
N440     N      0.801010000000     0.061140000000     0.769990000000     0          
C441     C      0.760340000000     0.042990000000     0.729550000000     0          
C442     C      0.822730000000     0.102350000000     0.738040000000     0          
H443     H      0.803610000000     0.007000000000     0.866480000000     0          
O444     O      0.942940000000     0.528120000000     0.165400000000     0          
O445     O      0.026820000000     0.550360000000     0.175720000000     0          
O446     O      0.018020000000     0.445210000000     0.952410000000     0          
C447     C      0.021830000000     0.450420000000     0.862700000000     0          
N448     N      0.058550000000     0.427580000000     0.817850000000     0          
C449     C      0.062360000000     0.432790000000     0.728130000000     0          
C450     C      0.091450000000     0.399520000000     0.862700000000     0          
H451     H      0.997030000000     0.471570000000     0.828890000000     0          
H452     H      0.012960000000     0.666380000000     0.532110000000     0          
H453     H      0.962040000000     0.641970000000     0.610990000000     0          
H454     H      0.080420000000     0.736760000000     0.273740000000     0          
H455     H      0.083280000000     0.722690000000     0.146450000000     0          
O456     O      0.428530000000     0.975500000000     0.505590000000     0          
O457     O      0.401880000000     0.615650000000     0.494000000000     0          
O458     O      0.476380000000     0.653850000000     0.491600000000     0          
O459     O      0.376500000000     0.962920000000     0.612190000000     0          
C460     C      0.305610000000     0.868910000000     0.500850000000     0          
N461     N      0.355700000000     0.851650000000     0.511780000000     0          
N462     N      0.365600000000     0.799420000000     0.518950000000     0          
C463     C      0.325430000000     0.764440000000     0.515180000000     0          
N464     N      0.275340000000     0.781690000000     0.504260000000     0          
N465     N      0.265440000000     0.833930000000     0.497090000000     0          
S466     S      0.293520000000     0.932710000000     0.492100000000     0          
S467     S      0.337520000000     0.700640000000     0.523930000000     0          
C468     C      0.388030000000     0.961490000000     0.526500000000     0          
C469     C      0.345330000000     0.970980000000     0.463160000000     0          
C470     C      0.405990000000     0.708340000000     0.531200000000     0          
C471     C      0.429400000000     0.655490000000     0.512600000000     0          
Zr472    Zr     0.406440000000     0.530240000000     0.500610000000     0          
O473     O      0.360650000000     0.556220000000     0.382830000000     0          
C474     C      0.319980000000     0.538070000000     0.342390000000     0          
N475     N      0.301010000000     0.561140000000     0.269990000000     0          
C476     C      0.260340000000     0.542990000000     0.229550000000     0          
C477     C      0.322730000000     0.602350000000     0.238040000000     0          
H478     H      0.303610000000     0.507000000000     0.366480000000     0          
O479     O      0.442940000000     0.028120000000     0.665400000000     0          
O480     O      0.526820000000     0.050360000000     0.675720000000     0          
O481     O      0.518020000000     0.945210000000     0.452410000000     0          
C482     C      0.521830000000     0.950420000000     0.362700000000     0          
N483     N      0.558550000000     0.927580000000     0.317850000000     0          
C484     C      0.562360000000     0.932790000000     0.228130000000     0          
C485     C      0.591450000000     0.899520000000     0.362700000000     0          
H486     H      0.497030000000     0.971570000000     0.328890000000     0          
H487     H      0.512960000000     0.166380000000     0.032110000000     0          
H488     H      0.462040000000     0.141970000000     0.110990000000     0          
H489     H      0.580420000000     0.236760000000     0.773740000000     0          
H490     H      0.583280000000     0.222690000000     0.646450000000     0          
O491     O      0.071470000000     0.524500000000     0.005590000000     0          
O492     O      0.098120000000     0.884350000000     0.994000000000     0          
O493     O      0.023620000000     0.846150000000     0.991600000000     0          
O494     O      0.123500000000     0.537080000000     0.112190000000     0          
C495     C      0.194390000000     0.631090000000     0.000850000000     0          
N496     N      0.144300000000     0.648350000000     0.011780000000     0          
N497     N      0.134400000000     0.700580000000     0.018950000000     0          
C498     C      0.174570000000     0.735560000000     0.015180000000     0          
N499     N      0.224660000000     0.718310000000     0.004260000000     0          
N500     N      0.234560000000     0.666070000000     0.997090000000     0          
S501     S      0.206480000000     0.567290000000     0.992100000000     0          
S502     S      0.162480000000     0.799360000000     0.023930000000     0          
C503     C      0.111970000000     0.538510000000     0.026500000000     0          
C504     C      0.154670000000     0.529020000000     0.963160000000     0          
C505     C      0.094010000000     0.791660000000     0.031200000000     0          
C506     C      0.070600000000     0.844510000000     0.012600000000     0          
Zr507    Zr     0.093560000000     0.969760000000     0.000610000000     0          
O508     O      0.139350000000     0.943780000000     0.882830000000     0          
C509     C      0.180020000000     0.961930000000     0.842390000000     0          
N510     N      0.198990000000     0.938860000000     0.769990000000     0          
C511     C      0.239660000000     0.957010000000     0.729550000000     0          
C512     C      0.177270000000     0.897650000000     0.738040000000     0          
H513     H      0.196390000000     0.993000000000     0.866480000000     0          
O514     O      0.057060000000     0.471880000000     0.165400000000     0          
O515     O      0.973180000000     0.449640000000     0.175720000000     0          
O516     O      0.981980000000     0.554790000000     0.952410000000     0          
C517     C      0.978170000000     0.549580000000     0.862700000000     0          
N518     N      0.941450000000     0.572420000000     0.817850000000     0          
C519     C      0.937640000000     0.567210000000     0.728130000000     0          
C520     C      0.908550000000     0.600480000000     0.862700000000     0          
H521     H      0.002970000000     0.528430000000     0.828890000000     0          
H522     H      0.987040000000     0.333620000000     0.532110000000     0          
H523     H      0.037960000000     0.358030000000     0.610990000000     0          
H524     H      0.919580000000     0.263240000000     0.273740000000     0          
H525     H      0.916720000000     0.277310000000     0.146450000000     0          
O526     O      0.571470000000     0.024500000000     0.505590000000     0          
O527     O      0.598120000000     0.384350000000     0.494000000000     0          
O528     O      0.523620000000     0.346150000000     0.491600000000     0          
O529     O      0.623500000000     0.037080000000     0.612190000000     0          
C530     C      0.694390000000     0.131090000000     0.500850000000     0          
N531     N      0.644300000000     0.148350000000     0.511780000000     0          
N532     N      0.634400000000     0.200580000000     0.518950000000     0          
C533     C      0.674570000000     0.235560000000     0.515180000000     0          
N534     N      0.724660000000     0.218310000000     0.504260000000     0          
N535     N      0.734560000000     0.166070000000     0.497090000000     0          
S536     S      0.706480000000     0.067290000000     0.492100000000     0          
S537     S      0.662480000000     0.299360000000     0.523930000000     0          
C538     C      0.611970000000     0.038510000000     0.526500000000     0          
C539     C      0.654670000000     0.029020000000     0.463160000000     0          
C540     C      0.594010000000     0.291660000000     0.531200000000     0          
C541     C      0.570600000000     0.344510000000     0.512600000000     0          
Zr542    Zr     0.593560000000     0.469760000000     0.500610000000     0          
O543     O      0.639350000000     0.443780000000     0.382830000000     0          
C544     C      0.680020000000     0.461930000000     0.342390000000     0          
N545     N      0.698990000000     0.438860000000     0.269990000000     0          
C546     C      0.739660000000     0.457010000000     0.229550000000     0          
C547     C      0.677270000000     0.397650000000     0.238040000000     0          
H548     H      0.696390000000     0.493000000000     0.366480000000     0          
O549     O      0.557060000000     0.971880000000     0.665400000000     0          
O550     O      0.473180000000     0.949640000000     0.675720000000     0          
O551     O      0.481980000000     0.054790000000     0.452410000000     0          
C552     C      0.478170000000     0.049580000000     0.362700000000     0          
N553     N      0.441450000000     0.072420000000     0.317850000000     0          
C554     C      0.437640000000     0.067210000000     0.228130000000     0          
C555     C      0.408550000000     0.100480000000     0.362700000000     0          
H556     H      0.502970000000     0.028430000000     0.328890000000     0          
H557     H      0.487040000000     0.833620000000     0.032110000000     0          
H558     H      0.537960000000     0.858030000000     0.110990000000     0          
H559     H      0.419580000000     0.763240000000     0.773740000000     0          
H560     H      0.416720000000     0.777310000000     0.646450000000     0          
Zr561    Zr     0.500000000000     0.500000000000     0.322950000000     0          
Zr562    Zr     0.000000000000     0.000000000000     0.822950000000     0          
Zr563    Zr     0.500000000000     0.500000000000     0.677050000000     0          
Zr564    Zr     0.000000000000     0.000000000000     0.177050000000     0          
Zr565    Zr     0.000000000000     0.500000000000     0.427050000000     0          
Zr566    Zr     0.500000000000     0.000000000000     0.927050000000     0          
Zr567    Zr     0.000000000000     0.500000000000     0.072950000000     0          
Zr568    Zr     0.500000000000     0.000000000000     0.572950000000     0          


