data_ZOHXUS

_audit_creation_method RASPA-1.0
_audit_creation_date 2020-12-11
_audit_author_name 'Rocio Bueno-Perez'

_cell_length_a    29.91
_cell_length_b    29.91
_cell_length_c    26.077
_cell_angle_alpha 90
_cell_angle_beta  90
_cell_angle_gamma 90
_cell_volume      23328.7

_symmetry_cell_setting          triclinic
_symmetry_space_group_name_Hall 'P 1'
_symmetry_space_group_name_H-M  'P 1'
_symmetry_Int_Tables_number     1

_symmetry_equiv_pos_as_xyz 'x,y,z'

loop_
_atom_site_label
_atom_site_type_symbol
_atom_site_fract_x
_atom_site_fract_y
_atom_site_fract_z
_atom_site_charge
Zr1      Zr     0.250000000000     0.250000000000     0.094090000000     0          
Zr2      Zr     0.000000000000     0.000000000000     0.594090000000     0          
Zr3      Zr     0.250000000000     0.250000000000     0.905910000000     0          
Zr4      Zr     0.000000000000     0.000000000000     0.405910000000     0          
Zr5      Zr     0.190810000000     0.190810000000     0.000000000000     0          
Zr6      Zr     0.440800000000     0.440800000000     0.500000000000     0          
Zr7      Zr     0.309200000000     0.309190000000     0.000000000000     0          
Zr8      Zr     0.059190000000     0.059190000000     0.500000000000     0          
Zr9      Zr     0.309200000000     0.190810000000     0.000000000000     0          
Zr10     Zr     0.059190000000     0.440800000000     0.500000000000     0          
Zr11     Zr     0.190810000000     0.309190000000     0.000000000000     0          
Zr12     Zr     0.440800000000     0.059190000000     0.500000000000     0          
O13      O      0.250000000000     0.190800000000     0.045170000000     0          
O14      O      0.000000000000     0.440800000000     0.545170000000     0          
O15      O      0.250000000000     0.309200000000     0.045170000000     0          
O16      O      0.000000000000     0.059200000000     0.545170000000     0          
O17      O      0.309200000000     0.250000000000     0.045170000000     0          
O18      O      0.059200000000     0.000000000000     0.545170000000     0          
O19      O      0.190800000000     0.250000000000     0.045170000000     0          
O20      O      0.440800000000     0.000000000000     0.545170000000     0          
O21      O      0.250000000000     0.190800000000     0.954830000000     0          
O22      O      0.000000000000     0.440800000000     0.454830000000     0          
O23      O      0.250000000000     0.309200000000     0.954830000000     0          
O24      O      0.000000000000     0.059200000000     0.454830000000     0          
O25      O      0.190800000000     0.250000000000     0.954830000000     0          
O26      O      0.440800000000     0.000000000000     0.454830000000     0          
O27      O      0.309200000000     0.250000000000     0.954830000000     0          
O28      O      0.059200000000     0.000000000000     0.454830000000     0          
O29      O      0.205780000000     0.205780000000     0.136770000000     0          
O30      O      0.167360000000     0.167360000000     0.077690000000     0          
C31      C      0.177350000000     0.177350000000     0.123410000000     0          
C32      C      0.153400000000     0.153400000000     0.165330000000     0          
C33      C      0.163300000000     0.163300000000     0.214880000000     0          
H34      H      0.189660000000     0.189660000000     0.224000000000     0          
C35      C      0.141250000000     0.141250000000     0.255720000000     0          
C36      C      0.121100000000     0.121100000000     0.153780000000     0          
H37      H      0.112970000000     0.112970000000     0.112100000000     0          
C38      C      0.151000000000     0.151000000000     0.307700000000     0          
O39      O      0.455770000000     0.455770000000     0.636770000000     0          
O40      O      0.417360000000     0.417350000000     0.577690000000     0          
C41      C      0.427350000000     0.427350000000     0.623410000000     0          
C42      C      0.403400000000     0.403400000000     0.665330000000     0          
C43      C      0.413300000000     0.413300000000     0.714880000000     0          
H44      H      0.439660000000     0.439660000000     0.724000000000     0          
C45      C      0.391250000000     0.391250000000     0.755720000000     0          
C46      C      0.371100000000     0.371100000000     0.653780000000     0          
H47      H      0.362970000000     0.362970000000     0.612100000000     0          
C48      C      0.401000000000     0.401000000000     0.807700000000     0          
O49      O      0.294230000000     0.294220000000     0.136770000000     0          
O50      O      0.332640000000     0.332650000000     0.077690000000     0          
C51      C      0.322650000000     0.322650000000     0.123410000000     0          
C52      C      0.346600000000     0.346600000000     0.165330000000     0          
C53      C      0.336700000000     0.336700000000     0.214880000000     0          
H54      H      0.310340000000     0.310340000000     0.224000000000     0          
C55      C      0.358750000000     0.358750000000     0.255720000000     0          
C56      C      0.378900000000     0.378900000000     0.153780000000     0          
H57      H      0.387040000000     0.387040000000     0.112100000000     0          
C58      C      0.349000000000     0.349000000000     0.307700000000     0          
O59      O      0.044220000000     0.044220000000     0.636770000000     0          
O60      O      0.082640000000     0.082650000000     0.577690000000     0          
C61      C      0.072650000000     0.072650000000     0.623410000000     0          
C62      C      0.096600000000     0.096600000000     0.665330000000     0          
C63      C      0.086700000000     0.086700000000     0.714880000000     0          
H64      H      0.060340000000     0.060340000000     0.724000000000     0          
C65      C      0.108750000000     0.108750000000     0.755720000000     0          
C66      C      0.128900000000     0.128900000000     0.653780000000     0          
H67      H      0.137040000000     0.137040000000     0.612100000000     0          
C68      C      0.099000000000     0.099000000000     0.807700000000     0          
O69      O      0.294230000000     0.205780000000     0.136770000000     0          
O70      O      0.332640000000     0.167360000000     0.077690000000     0          
C71      C      0.322650000000     0.177350000000     0.123410000000     0          
C72      C      0.346600000000     0.153400000000     0.165330000000     0          
C73      C      0.336700000000     0.163300000000     0.214880000000     0          
H74      H      0.310340000000     0.189660000000     0.224000000000     0          
C75      C      0.358750000000     0.141250000000     0.255720000000     0          
C76      C      0.378900000000     0.121100000000     0.153780000000     0          
H77      H      0.387040000000     0.112970000000     0.112100000000     0          
C78      C      0.349000000000     0.151000000000     0.307700000000     0          
O79      O      0.044220000000     0.455770000000     0.636770000000     0          
O80      O      0.082640000000     0.417350000000     0.577690000000     0          
C81      C      0.072650000000     0.427350000000     0.623410000000     0          
C82      C      0.096600000000     0.403400000000     0.665330000000     0          
C83      C      0.086700000000     0.413300000000     0.714880000000     0          
H84      H      0.060340000000     0.439660000000     0.724000000000     0          
C85      C      0.108750000000     0.391250000000     0.755720000000     0          
C86      C      0.128900000000     0.371100000000     0.653780000000     0          
H87      H      0.137040000000     0.362970000000     0.612100000000     0          
C88      C      0.099000000000     0.401000000000     0.807700000000     0          
O89      O      0.205780000000     0.294220000000     0.136770000000     0          
O90      O      0.167360000000     0.332650000000     0.077690000000     0          
C91      C      0.177350000000     0.322650000000     0.123410000000     0          
C92      C      0.153400000000     0.346600000000     0.165330000000     0          
C93      C      0.163300000000     0.336700000000     0.214880000000     0          
H94      H      0.189660000000     0.310340000000     0.224000000000     0          
C95      C      0.141250000000     0.358750000000     0.255720000000     0          
C96      C      0.121100000000     0.378900000000     0.153780000000     0          
H97      H      0.112970000000     0.387040000000     0.112100000000     0          
C98      C      0.151000000000     0.349000000000     0.307700000000     0          
O99      O      0.455770000000     0.044220000000     0.636770000000     0          
O100     O      0.417360000000     0.082650000000     0.577690000000     0          
C101     C      0.427350000000     0.072650000000     0.623410000000     0          
C102     C      0.403400000000     0.096600000000     0.665330000000     0          
C103     C      0.413300000000     0.086700000000     0.714880000000     0          
H104     H      0.439660000000     0.060340000000     0.724000000000     0          
C105     C      0.391250000000     0.108750000000     0.755720000000     0          
C106     C      0.371100000000     0.128900000000     0.653780000000     0          
H107     H      0.362970000000     0.137040000000     0.612100000000     0          
C108     C      0.401000000000     0.099000000000     0.807700000000     0          
O109     O      0.294230000000     0.205780000000     0.863230000000     0          
O110     O      0.332640000000     0.167360000000     0.922310000000     0          
C111     C      0.322650000000     0.177350000000     0.876590000000     0          
C112     C      0.346600000000     0.153400000000     0.834670000000     0          
C113     C      0.336700000000     0.163300000000     0.785120000000     0          
H114     H      0.310340000000     0.189660000000     0.776000000000     0          
C115     C      0.358750000000     0.141250000000     0.744280000000     0          
C116     C      0.378900000000     0.121100000000     0.846220000000     0          
H117     H      0.387040000000     0.112970000000     0.887900000000     0          
C118     C      0.349000000000     0.151000000000     0.692300000000     0          
O119     O      0.044220000000     0.455770000000     0.363230000000     0          
O120     O      0.082640000000     0.417350000000     0.422310000000     0          
C121     C      0.072650000000     0.427350000000     0.376590000000     0          
C122     C      0.096600000000     0.403400000000     0.334670000000     0          
C123     C      0.086700000000     0.413300000000     0.285120000000     0          
H124     H      0.060340000000     0.439660000000     0.276000000000     0          
C125     C      0.108750000000     0.391250000000     0.244280000000     0          
C126     C      0.128900000000     0.371100000000     0.346220000000     0          
H127     H      0.137040000000     0.362970000000     0.387900000000     0          
C128     C      0.099000000000     0.401000000000     0.192300000000     0          
O129     O      0.205780000000     0.294220000000     0.863230000000     0          
O130     O      0.167360000000     0.332650000000     0.922310000000     0          
C131     C      0.177350000000     0.322650000000     0.876590000000     0          
C132     C      0.153400000000     0.346600000000     0.834670000000     0          
C133     C      0.163300000000     0.336700000000     0.785120000000     0          
H134     H      0.189660000000     0.310340000000     0.776000000000     0          
C135     C      0.141250000000     0.358750000000     0.744280000000     0          
C136     C      0.121100000000     0.378900000000     0.846220000000     0          
H137     H      0.112970000000     0.387040000000     0.887900000000     0          
C138     C      0.151000000000     0.349000000000     0.692300000000     0          
O139     O      0.455770000000     0.044220000000     0.363230000000     0          
O140     O      0.417360000000     0.082650000000     0.422310000000     0          
C141     C      0.427350000000     0.072650000000     0.376590000000     0          
C142     C      0.403400000000     0.096600000000     0.334670000000     0          
C143     C      0.413300000000     0.086700000000     0.285120000000     0          
H144     H      0.439660000000     0.060340000000     0.276000000000     0          
C145     C      0.391250000000     0.108750000000     0.244280000000     0          
C146     C      0.371100000000     0.128900000000     0.346220000000     0          
H147     H      0.362970000000     0.137040000000     0.387900000000     0          
C148     C      0.401000000000     0.099000000000     0.192300000000     0          
O149     O      0.205780000000     0.205780000000     0.863230000000     0          
O150     O      0.167360000000     0.167360000000     0.922310000000     0          
C151     C      0.177350000000     0.177350000000     0.876590000000     0          
C152     C      0.153400000000     0.153400000000     0.834670000000     0          
C153     C      0.163300000000     0.163300000000     0.785120000000     0          
H154     H      0.189660000000     0.189660000000     0.776000000000     0          
C155     C      0.141250000000     0.141250000000     0.744280000000     0          
C156     C      0.121100000000     0.121100000000     0.846220000000     0          
H157     H      0.112970000000     0.112970000000     0.887900000000     0          
C158     C      0.151000000000     0.151000000000     0.692300000000     0          
O159     O      0.455770000000     0.455770000000     0.363230000000     0          
O160     O      0.417360000000     0.417350000000     0.422310000000     0          
C161     C      0.427350000000     0.427350000000     0.376590000000     0          
C162     C      0.403400000000     0.403400000000     0.334670000000     0          
C163     C      0.413300000000     0.413300000000     0.285120000000     0          
H164     H      0.439660000000     0.439660000000     0.276000000000     0          
C165     C      0.391250000000     0.391250000000     0.244280000000     0          
C166     C      0.371100000000     0.371100000000     0.346220000000     0          
H167     H      0.362970000000     0.362970000000     0.387900000000     0          
C168     C      0.401000000000     0.401000000000     0.192300000000     0          
O169     O      0.294230000000     0.294220000000     0.863230000000     0          
O170     O      0.332640000000     0.332650000000     0.922310000000     0          
C171     C      0.322650000000     0.322650000000     0.876590000000     0          
C172     C      0.346600000000     0.346600000000     0.834670000000     0          
C173     C      0.336700000000     0.336700000000     0.785120000000     0          
H174     H      0.310340000000     0.310340000000     0.776000000000     0          
C175     C      0.358750000000     0.358750000000     0.744280000000     0          
C176     C      0.378900000000     0.378900000000     0.846220000000     0          
H177     H      0.387040000000     0.387040000000     0.887900000000     0          
C178     C      0.349000000000     0.349000000000     0.692300000000     0          
O179     O      0.044220000000     0.044220000000     0.363230000000     0          
O180     O      0.082640000000     0.082650000000     0.422310000000     0          
C181     C      0.072650000000     0.072650000000     0.376590000000     0          
C182     C      0.096600000000     0.096600000000     0.334670000000     0          
C183     C      0.086700000000     0.086700000000     0.285120000000     0          
H184     H      0.060340000000     0.060340000000     0.276000000000     0          
C185     C      0.108750000000     0.108750000000     0.244280000000     0          
C186     C      0.128900000000     0.128900000000     0.346220000000     0          
H187     H      0.137040000000     0.137040000000     0.387900000000     0          
C188     C      0.099000000000     0.099000000000     0.192300000000     0          
O189     O      0.117150000000     0.196500000000     0.000000000000     0          
O190     O      0.367150000000     0.446500000000     0.500000000000     0          
O191     O      0.362900000000     0.371550000000     0.500000000000     0          
C192     C      0.342700000000     0.412500000000     0.500000000000     0          
C193     C      0.294300000000     0.417150000000     0.500000000000     0          
C194     C      0.273750000000     0.459900000000     0.500000000000     0          
C195     C      0.273600000000     0.376150000000     0.500000000000     0          
N196     N      0.290500000000     0.334050000000     0.500000000000     0          
O197     O      0.382850000000     0.303500000000     0.000000000000     0          
O198     O      0.132850000000     0.053500000000     0.500000000000     0          
O199     O      0.137100000000     0.128450000000     0.500000000000     0          
C200     C      0.157300000000     0.087500000000     0.500000000000     0          
C201     C      0.205700000000     0.082850000000     0.500000000000     0          
C202     C      0.226250000000     0.040100000000     0.500000000000     0          
C203     C      0.226400000000     0.123850000000     0.500000000000     0          
N204     N      0.209500000000     0.165950000000     0.500000000000     0          
O205     O      0.303500000000     0.117150000000     0.000000000000     0          
O206     O      0.053500000000     0.367150000000     0.500000000000     0          
O207     O      0.196500000000     0.382850000000     0.000000000000     0          
O208     O      0.446500000000     0.132850000000     0.500000000000     0          
O209     O      0.382850000000     0.196500000000     0.000000000000     0          
O210     O      0.387100000000     0.121550000000     0.000000000000     0          
C211     C      0.407300000000     0.162500000000     0.000000000000     0          
C212     C      0.455700000000     0.167150000000     0.000000000000     0          
C213     C      0.476250000000     0.209900000000     0.000000000000     0          
C214     C      0.476400000000     0.126150000000     0.000000000000     0          
O215     O      0.132850000000     0.446500000000     0.500000000000     0          
O216     O      0.137100000000     0.371550000000     0.500000000000     0          
C217     C      0.157300000000     0.412500000000     0.500000000000     0          
C218     C      0.205700000000     0.417150000000     0.500000000000     0          
C219     C      0.226250000000     0.459900000000     0.500000000000     0          
C220     C      0.226400000000     0.376150000000     0.500000000000     0          
O221     O      0.117150000000     0.303500000000     0.000000000000     0          
O222     O      0.112900000000     0.378450000000     0.000000000000     0          
C223     C      0.092700000000     0.337500000000     0.000000000000     0          
C224     C      0.044300000000     0.332850000000     0.000000000000     0          
C225     C      0.023750000000     0.290100000000     0.000000000000     0          
C226     C      0.023600000000     0.373850000000     0.000000000000     0          
O227     O      0.367150000000     0.053500000000     0.500000000000     0          
O228     O      0.362900000000     0.128450000000     0.500000000000     0          
C229     C      0.342700000000     0.087500000000     0.500000000000     0          
C230     C      0.294300000000     0.082850000000     0.500000000000     0          
C231     C      0.273750000000     0.040100000000     0.500000000000     0          
C232     C      0.273600000000     0.123850000000     0.500000000000     0          
O233     O      0.196500000000     0.117150000000     0.000000000000     0          
O234     O      0.121550000000     0.112900000000     0.000000000000     0          
C235     C      0.162500000000     0.092700000000     0.000000000000     0          
C236     C      0.167150000000     0.044300000000     0.000000000000     0          
C237     C      0.209900000000     0.023750000000     0.000000000000     0          
C238     C      0.126150000000     0.023600000000     0.000000000000     0          
O239     O      0.446500000000     0.367150000000     0.500000000000     0          
O240     O      0.303500000000     0.382850000000     0.000000000000     0          
O241     O      0.378450000000     0.387100000000     0.000000000000     0          
C242     C      0.337500000000     0.407300000000     0.000000000000     0          
C243     C      0.332850000000     0.455700000000     0.000000000000     0          
C244     C      0.290100000000     0.476250000000     0.000000000000     0          
C245     C      0.373850000000     0.476400000000     0.000000000000     0          
O246     O      0.053500000000     0.132850000000     0.500000000000     0          
O247     O      0.269470000000     0.305610000000     0.487130000000     0          
O248     O      0.174640000000     0.171950000000     0.487130000000     0          
O249     O      0.325360000000     0.328050000000     0.512870000000     0          
O250     O      0.230540000000     0.194390000000     0.512870000000     0          
H251     H      0.295250000000     0.491370000000     0.500000000000     0          
H252     H      0.204760000000     0.008620000000     0.500000000000     0          
H253     H      0.454760000000     0.241380000000     0.000000000000     0          
H254     H      0.455520000000     0.094260000000     0.000000000000     0          
H255     H      0.204760000000     0.491370000000     0.500000000000     0          
H256     H      0.045240000000     0.258620000000     0.000000000000     0          
H257     H      0.044470000000     0.405740000000     0.000000000000     0          
H258     H      0.295250000000     0.008620000000     0.500000000000     0          
H259     H      0.294480000000     0.155740000000     0.500000000000     0          
H260     H      0.241380000000     0.045250000000     0.000000000000     0          
H261     H      0.094260000000     0.044470000000     0.000000000000     0          
H262     H      0.258620000000     0.454750000000     0.000000000000     0          
H263     H      0.405740000000     0.455520000000     0.000000000000     0          
Zr264    Zr     0.750000000000     0.250000000000     0.094090000000     0          
Zr265    Zr     0.500000000000     0.000000000000     0.594090000000     0          
Zr266    Zr     0.750000000000     0.250000000000     0.905910000000     0          
Zr267    Zr     0.500000000000     0.000000000000     0.405910000000     0          
Zr268    Zr     0.690810000000     0.190810000000     0.000000000000     0          
Zr269    Zr     0.940800000000     0.440800000000     0.500000000000     0          
Zr270    Zr     0.809200000000     0.309190000000     0.000000000000     0          
Zr271    Zr     0.559200000000     0.059190000000     0.500000000000     0          
Zr272    Zr     0.809200000000     0.190810000000     0.000000000000     0          
Zr273    Zr     0.559200000000     0.440800000000     0.500000000000     0          
Zr274    Zr     0.690810000000     0.309190000000     0.000000000000     0          
Zr275    Zr     0.940800000000     0.059190000000     0.500000000000     0          
O276     O      0.750000000000     0.190800000000     0.045170000000     0          
O277     O      0.500000000000     0.440800000000     0.545170000000     0          
O278     O      0.750000000000     0.309200000000     0.045170000000     0          
O279     O      0.500000000000     0.059200000000     0.545170000000     0          
O280     O      0.809200000000     0.250000000000     0.045170000000     0          
O281     O      0.559200000000     0.000000000000     0.545170000000     0          
O282     O      0.690800000000     0.250000000000     0.045170000000     0          
O283     O      0.940800000000     0.000000000000     0.545170000000     0          
O284     O      0.750000000000     0.190800000000     0.954830000000     0          
O285     O      0.500000000000     0.440800000000     0.454830000000     0          
O286     O      0.750000000000     0.309200000000     0.954830000000     0          
O287     O      0.500000000000     0.059200000000     0.454830000000     0          
O288     O      0.690800000000     0.250000000000     0.954830000000     0          
O289     O      0.940800000000     0.000000000000     0.454830000000     0          
O290     O      0.809200000000     0.250000000000     0.954830000000     0          
O291     O      0.559200000000     0.000000000000     0.454830000000     0          
O292     O      0.705780000000     0.205780000000     0.136770000000     0          
O293     O      0.667360000000     0.167360000000     0.077690000000     0          
C294     C      0.677350000000     0.177350000000     0.123410000000     0          
C295     C      0.653400000000     0.153400000000     0.165330000000     0          
C296     C      0.663300000000     0.163300000000     0.214880000000     0          
H297     H      0.689660000000     0.189660000000     0.224000000000     0          
C298     C      0.641250000000     0.141250000000     0.255720000000     0          
C299     C      0.621100000000     0.121100000000     0.153780000000     0          
H300     H      0.612960000000     0.112970000000     0.112100000000     0          
C301     C      0.651000000000     0.151000000000     0.307700000000     0          
O302     O      0.955770000000     0.455770000000     0.636770000000     0          
O303     O      0.917350000000     0.417350000000     0.577690000000     0          
C304     C      0.927350000000     0.427350000000     0.623410000000     0          
C305     C      0.903400000000     0.403400000000     0.665330000000     0          
C306     C      0.913300000000     0.413300000000     0.714880000000     0          
H307     H      0.939660000000     0.439660000000     0.724000000000     0          
C308     C      0.891250000000     0.391250000000     0.755720000000     0          
C309     C      0.871100000000     0.371100000000     0.653780000000     0          
H310     H      0.862960000000     0.362970000000     0.612100000000     0          
C311     C      0.901000000000     0.401000000000     0.807700000000     0          
O312     O      0.794230000000     0.294220000000     0.136770000000     0          
O313     O      0.832640000000     0.332650000000     0.077690000000     0          
C314     C      0.822650000000     0.322650000000     0.123410000000     0          
C315     C      0.846600000000     0.346600000000     0.165330000000     0          
C316     C      0.836700000000     0.336700000000     0.214880000000     0          
H317     H      0.810340000000     0.310340000000     0.224000000000     0          
C318     C      0.858750000000     0.358750000000     0.255720000000     0          
C319     C      0.878900000000     0.378900000000     0.153780000000     0          
H320     H      0.887040000000     0.387040000000     0.112100000000     0          
C321     C      0.849000000000     0.349000000000     0.307700000000     0          
O322     O      0.544220000000     0.044220000000     0.636770000000     0          
O323     O      0.582640000000     0.082650000000     0.577690000000     0          
C324     C      0.572650000000     0.072650000000     0.623410000000     0          
C325     C      0.596600000000     0.096600000000     0.665330000000     0          
C326     C      0.586700000000     0.086700000000     0.714880000000     0          
H327     H      0.560340000000     0.060340000000     0.724000000000     0          
C328     C      0.608750000000     0.108750000000     0.755720000000     0          
C329     C      0.628900000000     0.128900000000     0.653780000000     0          
H330     H      0.637040000000     0.137040000000     0.612100000000     0          
C331     C      0.599000000000     0.099000000000     0.807700000000     0          
O332     O      0.794230000000     0.205780000000     0.136770000000     0          
O333     O      0.832640000000     0.167360000000     0.077690000000     0          
C334     C      0.822650000000     0.177350000000     0.123410000000     0          
C335     C      0.846600000000     0.153400000000     0.165330000000     0          
C336     C      0.836700000000     0.163300000000     0.214880000000     0          
H337     H      0.810340000000     0.189660000000     0.224000000000     0          
C338     C      0.858750000000     0.141250000000     0.255720000000     0          
C339     C      0.878900000000     0.121100000000     0.153780000000     0          
H340     H      0.887040000000     0.112970000000     0.112100000000     0          
C341     C      0.849000000000     0.151000000000     0.307700000000     0          
O342     O      0.544220000000     0.455770000000     0.636770000000     0          
O343     O      0.582640000000     0.417350000000     0.577690000000     0          
C344     C      0.572650000000     0.427350000000     0.623410000000     0          
C345     C      0.596600000000     0.403400000000     0.665330000000     0          
C346     C      0.586700000000     0.413300000000     0.714880000000     0          
H347     H      0.560340000000     0.439660000000     0.724000000000     0          
C348     C      0.608750000000     0.391250000000     0.755720000000     0          
C349     C      0.628900000000     0.371100000000     0.653780000000     0          
H350     H      0.637040000000     0.362970000000     0.612100000000     0          
C351     C      0.599000000000     0.401000000000     0.807700000000     0          
O352     O      0.705780000000     0.294220000000     0.136770000000     0          
O353     O      0.667360000000     0.332650000000     0.077690000000     0          
C354     C      0.677350000000     0.322650000000     0.123410000000     0          
C355     C      0.653400000000     0.346600000000     0.165330000000     0          
C356     C      0.663300000000     0.336700000000     0.214880000000     0          
H357     H      0.689660000000     0.310340000000     0.224000000000     0          
C358     C      0.641250000000     0.358750000000     0.255720000000     0          
C359     C      0.621100000000     0.378900000000     0.153780000000     0          
H360     H      0.612960000000     0.387040000000     0.112100000000     0          
C361     C      0.651000000000     0.349000000000     0.307700000000     0          
O362     O      0.955770000000     0.044220000000     0.636770000000     0          
O363     O      0.917350000000     0.082650000000     0.577690000000     0          
C364     C      0.927350000000     0.072650000000     0.623410000000     0          
C365     C      0.903400000000     0.096600000000     0.665330000000     0          
C366     C      0.913300000000     0.086700000000     0.714880000000     0          
H367     H      0.939660000000     0.060340000000     0.724000000000     0          
C368     C      0.891250000000     0.108750000000     0.755720000000     0          
C369     C      0.871100000000     0.128900000000     0.653780000000     0          
H370     H      0.862960000000     0.137040000000     0.612100000000     0          
C371     C      0.901000000000     0.099000000000     0.807700000000     0          
O372     O      0.794230000000     0.205780000000     0.863230000000     0          
O373     O      0.832640000000     0.167360000000     0.922310000000     0          
C374     C      0.822650000000     0.177350000000     0.876590000000     0          
C375     C      0.846600000000     0.153400000000     0.834670000000     0          
C376     C      0.836700000000     0.163300000000     0.785120000000     0          
H377     H      0.810340000000     0.189660000000     0.776000000000     0          
C378     C      0.858750000000     0.141250000000     0.744280000000     0          
C379     C      0.878900000000     0.121100000000     0.846220000000     0          
H380     H      0.887040000000     0.112970000000     0.887900000000     0          
C381     C      0.849000000000     0.151000000000     0.692300000000     0          
O382     O      0.544220000000     0.455770000000     0.363230000000     0          
O383     O      0.582640000000     0.417350000000     0.422310000000     0          
C384     C      0.572650000000     0.427350000000     0.376590000000     0          
C385     C      0.596600000000     0.403400000000     0.334670000000     0          
C386     C      0.586700000000     0.413300000000     0.285120000000     0          
H387     H      0.560340000000     0.439660000000     0.276000000000     0          
C388     C      0.608750000000     0.391250000000     0.244280000000     0          
C389     C      0.628900000000     0.371100000000     0.346220000000     0          
H390     H      0.637040000000     0.362970000000     0.387900000000     0          
C391     C      0.599000000000     0.401000000000     0.192300000000     0          
O392     O      0.705780000000     0.294220000000     0.863230000000     0          
O393     O      0.667360000000     0.332650000000     0.922310000000     0          
C394     C      0.677350000000     0.322650000000     0.876590000000     0          
C395     C      0.653400000000     0.346600000000     0.834670000000     0          
C396     C      0.663300000000     0.336700000000     0.785120000000     0          
H397     H      0.689660000000     0.310340000000     0.776000000000     0          
C398     C      0.641250000000     0.358750000000     0.744280000000     0          
C399     C      0.621100000000     0.378900000000     0.846220000000     0          
H400     H      0.612960000000     0.387040000000     0.887900000000     0          
C401     C      0.651000000000     0.349000000000     0.692300000000     0          
O402     O      0.955770000000     0.044220000000     0.363230000000     0          
O403     O      0.917350000000     0.082650000000     0.422310000000     0          
C404     C      0.927350000000     0.072650000000     0.376590000000     0          
C405     C      0.903400000000     0.096600000000     0.334670000000     0          
C406     C      0.913300000000     0.086700000000     0.285120000000     0          
H407     H      0.939660000000     0.060340000000     0.276000000000     0          
C408     C      0.891250000000     0.108750000000     0.244280000000     0          
C409     C      0.871100000000     0.128900000000     0.346220000000     0          
H410     H      0.862960000000     0.137040000000     0.387900000000     0          
C411     C      0.901000000000     0.099000000000     0.192300000000     0          
O412     O      0.705780000000     0.205780000000     0.863230000000     0          
O413     O      0.667360000000     0.167360000000     0.922310000000     0          
C414     C      0.677350000000     0.177350000000     0.876590000000     0          
C415     C      0.653400000000     0.153400000000     0.834670000000     0          
C416     C      0.663300000000     0.163300000000     0.785120000000     0          
H417     H      0.689660000000     0.189660000000     0.776000000000     0          
C418     C      0.641250000000     0.141250000000     0.744280000000     0          
C419     C      0.621100000000     0.121100000000     0.846220000000     0          
H420     H      0.612960000000     0.112970000000     0.887900000000     0          
C421     C      0.651000000000     0.151000000000     0.692300000000     0          
O422     O      0.955770000000     0.455770000000     0.363230000000     0          
O423     O      0.917350000000     0.417350000000     0.422310000000     0          
C424     C      0.927350000000     0.427350000000     0.376590000000     0          
C425     C      0.903400000000     0.403400000000     0.334670000000     0          
C426     C      0.913300000000     0.413300000000     0.285120000000     0          
H427     H      0.939660000000     0.439660000000     0.276000000000     0          
C428     C      0.891250000000     0.391250000000     0.244280000000     0          
C429     C      0.871100000000     0.371100000000     0.346220000000     0          
H430     H      0.862960000000     0.362970000000     0.387900000000     0          
C431     C      0.901000000000     0.401000000000     0.192300000000     0          
O432     O      0.794230000000     0.294220000000     0.863230000000     0          
O433     O      0.832640000000     0.332650000000     0.922310000000     0          
C434     C      0.822650000000     0.322650000000     0.876590000000     0          
C435     C      0.846600000000     0.346600000000     0.834670000000     0          
C436     C      0.836700000000     0.336700000000     0.785120000000     0          
H437     H      0.810340000000     0.310340000000     0.776000000000     0          
C438     C      0.858750000000     0.358750000000     0.744280000000     0          
C439     C      0.878900000000     0.378900000000     0.846220000000     0          
H440     H      0.887040000000     0.387040000000     0.887900000000     0          
C441     C      0.849000000000     0.349000000000     0.692300000000     0          
O442     O      0.544220000000     0.044220000000     0.363230000000     0          
O443     O      0.582640000000     0.082650000000     0.422310000000     0          
C444     C      0.572650000000     0.072650000000     0.376590000000     0          
C445     C      0.596600000000     0.096600000000     0.334670000000     0          
C446     C      0.586700000000     0.086700000000     0.285120000000     0          
H447     H      0.560340000000     0.060340000000     0.276000000000     0          
C448     C      0.608750000000     0.108750000000     0.244280000000     0          
C449     C      0.628900000000     0.128900000000     0.346220000000     0          
H450     H      0.637040000000     0.137040000000     0.387900000000     0          
C451     C      0.599000000000     0.099000000000     0.192300000000     0          
O452     O      0.617150000000     0.196500000000     0.000000000000     0          
O453     O      0.612900000000     0.121550000000     0.000000000000     0          
C454     C      0.592700000000     0.162500000000     0.000000000000     0          
C455     C      0.544300000000     0.167150000000     0.000000000000     0          
C456     C      0.523750000000     0.209900000000     0.000000000000     0          
C457     C      0.523600000000     0.126150000000     0.000000000000     0          
N458     N      0.540500000000     0.084050000000     0.000000000000     0          
O459     O      0.867150000000     0.446500000000     0.500000000000     0          
O460     O      0.882850000000     0.303500000000     0.000000000000     0          
O461     O      0.887100000000     0.378450000000     0.000000000000     0          
C462     C      0.907300000000     0.337500000000     0.000000000000     0          
C463     C      0.955700000000     0.332850000000     0.000000000000     0          
C464     C      0.976250000000     0.290100000000     0.000000000000     0          
C465     C      0.976400000000     0.373850000000     0.000000000000     0          
N466     N      0.959500000000     0.415950000000     0.000000000000     0          
O467     O      0.632850000000     0.053500000000     0.500000000000     0          
O468     O      0.803500000000     0.117150000000     0.000000000000     0          
O469     O      0.878450000000     0.112900000000     0.000000000000     0          
C470     C      0.837500000000     0.092700000000     0.000000000000     0          
C471     C      0.832850000000     0.044300000000     0.000000000000     0          
C472     C      0.790100000000     0.023750000000     0.000000000000     0          
C473     C      0.873850000000     0.023600000000     0.000000000000     0          
N474     N      0.915950000000     0.040500000000     0.000000000000     0          
O475     O      0.553500000000     0.367150000000     0.500000000000     0          
O476     O      0.628450000000     0.362900000000     0.500000000000     0          
C477     C      0.587500000000     0.342700000000     0.500000000000     0          
C478     C      0.582850000000     0.294300000000     0.500000000000     0          
C479     C      0.540100000000     0.273750000000     0.500000000000     0          
C480     C      0.623850000000     0.273600000000     0.500000000000     0          
N481     N      0.665950000000     0.290500000000     0.500000000000     0          
O482     O      0.696500000000     0.382850000000     0.000000000000     0          
O483     O      0.621550000000     0.387100000000     0.000000000000     0          
C484     C      0.662500000000     0.407300000000     0.000000000000     0          
C485     C      0.667150000000     0.455700000000     0.000000000000     0          
C486     C      0.709900000000     0.476250000000     0.000000000000     0          
C487     C      0.626150000000     0.476400000000     0.000000000000     0          
N488     N      0.584050000000     0.459500000000     0.000000000000     0          
O489     O      0.946500000000     0.132850000000     0.500000000000     0          
O490     O      0.871550000000     0.137100000000     0.500000000000     0          
C491     C      0.912500000000     0.157300000000     0.500000000000     0          
C492     C      0.917150000000     0.205700000000     0.500000000000     0          
C493     C      0.959900000000     0.226250000000     0.500000000000     0          
C494     C      0.876150000000     0.226400000000     0.500000000000     0          
N495     N      0.834050000000     0.209500000000     0.500000000000     0          
O496     O      0.882850000000     0.196500000000     0.000000000000     0          
O497     O      0.632850000000     0.446500000000     0.500000000000     0          
O498     O      0.617150000000     0.303500000000     0.000000000000     0          
O499     O      0.867150000000     0.053500000000     0.500000000000     0          
O500     O      0.696500000000     0.117150000000     0.000000000000     0          
O501     O      0.946500000000     0.367150000000     0.500000000000     0          
O502     O      0.871550000000     0.362900000000     0.500000000000     0          
C503     C      0.912500000000     0.342700000000     0.500000000000     0          
C504     C      0.917150000000     0.294300000000     0.500000000000     0          
C505     C      0.959900000000     0.273750000000     0.500000000000     0          
C506     C      0.876150000000     0.273600000000     0.500000000000     0          
O507     O      0.803500000000     0.382850000000     0.000000000000     0          
O508     O      0.553500000000     0.132850000000     0.500000000000     0          
O509     O      0.628450000000     0.137100000000     0.500000000000     0          
C510     C      0.587500000000     0.157300000000     0.500000000000     0          
C511     C      0.582850000000     0.205700000000     0.500000000000     0          
C512     C      0.540100000000     0.226250000000     0.500000000000     0          
C513     C      0.623850000000     0.226400000000     0.500000000000     0          
O514     O      0.519460000000     0.055610000000     0.987130000000     0          
O515     O      0.924640000000     0.421950000000     0.987130000000     0          
O516     O      0.941940000000     0.025550000000     0.974920000000     0          
O517     O      0.691950000000     0.275550000000     0.474920000000     0          
O518     O      0.575610000000     0.430720000000     0.974920000000     0          
O519     O      0.825610000000     0.180730000000     0.474920000000     0          
O520     O      0.575360000000     0.078050000000     0.012870000000     0          
O521     O      0.980530000000     0.444390000000     0.012870000000     0          
O522     O      0.924400000000     0.069280000000     0.025080000000     0          
O523     O      0.674400000000     0.319270000000     0.525080000000     0          
O524     O      0.558060000000     0.474450000000     0.025080000000     0          
O525     O      0.808060000000     0.224450000000     0.525080000000     0          
H526     H      0.545250000000     0.241380000000     0.000000000000     0          
H527     H      0.954750000000     0.258620000000     0.000000000000     0          
H528     H      0.758620000000     0.045250000000     0.000000000000     0          
H529     H      0.508620000000     0.295250000000     0.500000000000     0          
H530     H      0.741370000000     0.454750000000     0.000000000000     0          
H531     H      0.991370000000     0.204760000000     0.500000000000     0          
H532     H      0.991370000000     0.295250000000     0.500000000000     0          
H533     H      0.844260000000     0.294470000000     0.500000000000     0          
H534     H      0.508620000000     0.204760000000     0.500000000000     0          
H535     H      0.655740000000     0.205530000000     0.500000000000     0          
Zr536    Zr     0.250000000000     0.750000000000     0.094090000000     0          
Zr537    Zr     0.000000000000     0.500000000000     0.594090000000     0          
Zr538    Zr     0.250000000000     0.750000000000     0.905910000000     0          
Zr539    Zr     0.000000000000     0.500000000000     0.405910000000     0          
Zr540    Zr     0.190810000000     0.690810000000     0.000000000000     0          
Zr541    Zr     0.440800000000     0.940800000000     0.500000000000     0          
Zr542    Zr     0.309200000000     0.809190000000     0.000000000000     0          
Zr543    Zr     0.059190000000     0.559200000000     0.500000000000     0          
Zr544    Zr     0.309200000000     0.690810000000     0.000000000000     0          
Zr545    Zr     0.059190000000     0.940800000000     0.500000000000     0          
Zr546    Zr     0.190810000000     0.809190000000     0.000000000000     0          
Zr547    Zr     0.440800000000     0.559200000000     0.500000000000     0          
O548     O      0.250000000000     0.690800000000     0.045170000000     0          
O549     O      0.000000000000     0.940800000000     0.545170000000     0          
O550     O      0.250000000000     0.809200000000     0.045170000000     0          
O551     O      0.000000000000     0.559200000000     0.545170000000     0          
O552     O      0.309200000000     0.750000000000     0.045170000000     0          
O553     O      0.059200000000     0.500000000000     0.545170000000     0          
O554     O      0.190800000000     0.750000000000     0.045170000000     0          
O555     O      0.440800000000     0.500000000000     0.545170000000     0          
O556     O      0.250000000000     0.690800000000     0.954830000000     0          
O557     O      0.000000000000     0.940800000000     0.454830000000     0          
O558     O      0.250000000000     0.809200000000     0.954830000000     0          
O559     O      0.000000000000     0.559200000000     0.454830000000     0          
O560     O      0.190800000000     0.750000000000     0.954830000000     0          
O561     O      0.440800000000     0.500000000000     0.454830000000     0          
O562     O      0.309200000000     0.750000000000     0.954830000000     0          
O563     O      0.059200000000     0.500000000000     0.454830000000     0          
O564     O      0.205780000000     0.705780000000     0.136770000000     0          
O565     O      0.167360000000     0.667360000000     0.077690000000     0          
C566     C      0.177350000000     0.677350000000     0.123410000000     0          
C567     C      0.153400000000     0.653400000000     0.165330000000     0          
C568     C      0.163300000000     0.663300000000     0.214880000000     0          
H569     H      0.189660000000     0.689660000000     0.224000000000     0          
C570     C      0.141250000000     0.641250000000     0.255720000000     0          
C571     C      0.121100000000     0.621100000000     0.153780000000     0          
H572     H      0.112970000000     0.612960000000     0.112100000000     0          
C573     C      0.151000000000     0.651000000000     0.307700000000     0          
O574     O      0.455770000000     0.955770000000     0.636770000000     0          
O575     O      0.417360000000     0.917350000000     0.577690000000     0          
C576     C      0.427350000000     0.927350000000     0.623410000000     0          
C577     C      0.403400000000     0.903400000000     0.665330000000     0          
C578     C      0.413300000000     0.913300000000     0.714880000000     0          
H579     H      0.439660000000     0.939660000000     0.724000000000     0          
C580     C      0.391250000000     0.891250000000     0.755720000000     0          
C581     C      0.371100000000     0.871100000000     0.653780000000     0          
H582     H      0.362970000000     0.862970000000     0.612100000000     0          
C583     C      0.401000000000     0.901000000000     0.807700000000     0          
O584     O      0.294230000000     0.794220000000     0.136770000000     0          
O585     O      0.332640000000     0.832650000000     0.077690000000     0          
C586     C      0.322650000000     0.822650000000     0.123410000000     0          
C587     C      0.346600000000     0.846600000000     0.165330000000     0          
C588     C      0.336700000000     0.836700000000     0.214880000000     0          
H589     H      0.310340000000     0.810340000000     0.224000000000     0          
C590     C      0.358750000000     0.858750000000     0.255720000000     0          
C591     C      0.378900000000     0.878900000000     0.153780000000     0          
H592     H      0.387040000000     0.887030000000     0.112100000000     0          
C593     C      0.349000000000     0.849000000000     0.307700000000     0          
O594     O      0.044220000000     0.544220000000     0.636770000000     0          
O595     O      0.082640000000     0.582640000000     0.577690000000     0          
C596     C      0.072650000000     0.572650000000     0.623410000000     0          
C597     C      0.096600000000     0.596600000000     0.665330000000     0          
C598     C      0.086700000000     0.586700000000     0.714880000000     0          
H599     H      0.060340000000     0.560340000000     0.724000000000     0          
C600     C      0.108750000000     0.608750000000     0.755720000000     0          
C601     C      0.128900000000     0.628900000000     0.653780000000     0          
H602     H      0.137040000000     0.637040000000     0.612100000000     0          
C603     C      0.099000000000     0.599000000000     0.807700000000     0          
O604     O      0.294230000000     0.705780000000     0.136770000000     0          
O605     O      0.332640000000     0.667360000000     0.077690000000     0          
C606     C      0.322650000000     0.677350000000     0.123410000000     0          
C607     C      0.346600000000     0.653400000000     0.165330000000     0          
C608     C      0.336700000000     0.663300000000     0.214880000000     0          
H609     H      0.310340000000     0.689660000000     0.224000000000     0          
C610     C      0.358750000000     0.641250000000     0.255720000000     0          
C611     C      0.378900000000     0.621100000000     0.153780000000     0          
H612     H      0.387040000000     0.612960000000     0.112100000000     0          
C613     C      0.349000000000     0.651000000000     0.307700000000     0          
O614     O      0.044220000000     0.955770000000     0.636770000000     0          
O615     O      0.082640000000     0.917350000000     0.577690000000     0          
C616     C      0.072650000000     0.927350000000     0.623410000000     0          
C617     C      0.096600000000     0.903400000000     0.665330000000     0          
C618     C      0.086700000000     0.913300000000     0.714880000000     0          
H619     H      0.060340000000     0.939660000000     0.724000000000     0          
C620     C      0.108750000000     0.891250000000     0.755720000000     0          
C621     C      0.128900000000     0.871100000000     0.653780000000     0          
H622     H      0.137040000000     0.862970000000     0.612100000000     0          
C623     C      0.099000000000     0.901000000000     0.807700000000     0          
O624     O      0.205780000000     0.794220000000     0.136770000000     0          
O625     O      0.167360000000     0.832650000000     0.077690000000     0          
C626     C      0.177350000000     0.822650000000     0.123410000000     0          
C627     C      0.153400000000     0.846600000000     0.165330000000     0          
C628     C      0.163300000000     0.836700000000     0.214880000000     0          
H629     H      0.189660000000     0.810340000000     0.224000000000     0          
C630     C      0.141250000000     0.858750000000     0.255720000000     0          
C631     C      0.121100000000     0.878900000000     0.153780000000     0          
H632     H      0.112970000000     0.887030000000     0.112100000000     0          
C633     C      0.151000000000     0.849000000000     0.307700000000     0          
O634     O      0.455770000000     0.544220000000     0.636770000000     0          
O635     O      0.417360000000     0.582640000000     0.577690000000     0          
C636     C      0.427350000000     0.572650000000     0.623410000000     0          
C637     C      0.403400000000     0.596600000000     0.665330000000     0          
C638     C      0.413300000000     0.586700000000     0.714880000000     0          
H639     H      0.439660000000     0.560340000000     0.724000000000     0          
C640     C      0.391250000000     0.608750000000     0.755720000000     0          
C641     C      0.371100000000     0.628900000000     0.653780000000     0          
H642     H      0.362970000000     0.637040000000     0.612100000000     0          
C643     C      0.401000000000     0.599000000000     0.807700000000     0          
O644     O      0.294230000000     0.705780000000     0.863230000000     0          
O645     O      0.332640000000     0.667360000000     0.922310000000     0          
C646     C      0.322650000000     0.677350000000     0.876590000000     0          
C647     C      0.346600000000     0.653400000000     0.834670000000     0          
C648     C      0.336700000000     0.663300000000     0.785120000000     0          
H649     H      0.310340000000     0.689660000000     0.776000000000     0          
C650     C      0.358750000000     0.641250000000     0.744280000000     0          
C651     C      0.378900000000     0.621100000000     0.846220000000     0          
H652     H      0.387040000000     0.612960000000     0.887900000000     0          
C653     C      0.349000000000     0.651000000000     0.692300000000     0          
O654     O      0.044220000000     0.955770000000     0.363230000000     0          
O655     O      0.082640000000     0.917350000000     0.422310000000     0          
C656     C      0.072650000000     0.927350000000     0.376590000000     0          
C657     C      0.096600000000     0.903400000000     0.334670000000     0          
C658     C      0.086700000000     0.913300000000     0.285120000000     0          
H659     H      0.060340000000     0.939660000000     0.276000000000     0          
C660     C      0.108750000000     0.891250000000     0.244280000000     0          
C661     C      0.128900000000     0.871100000000     0.346220000000     0          
H662     H      0.137040000000     0.862970000000     0.387900000000     0          
C663     C      0.099000000000     0.901000000000     0.192300000000     0          
O664     O      0.205780000000     0.794220000000     0.863230000000     0          
O665     O      0.167360000000     0.832650000000     0.922310000000     0          
C666     C      0.177350000000     0.822650000000     0.876590000000     0          
C667     C      0.153400000000     0.846600000000     0.834670000000     0          
C668     C      0.163300000000     0.836700000000     0.785120000000     0          
H669     H      0.189660000000     0.810340000000     0.776000000000     0          
C670     C      0.141250000000     0.858750000000     0.744280000000     0          
C671     C      0.121100000000     0.878900000000     0.846220000000     0          
H672     H      0.112970000000     0.887030000000     0.887900000000     0          
C673     C      0.151000000000     0.849000000000     0.692300000000     0          
O674     O      0.455770000000     0.544220000000     0.363230000000     0          
O675     O      0.417360000000     0.582640000000     0.422310000000     0          
C676     C      0.427350000000     0.572650000000     0.376590000000     0          
C677     C      0.403400000000     0.596600000000     0.334670000000     0          
C678     C      0.413300000000     0.586700000000     0.285120000000     0          
H679     H      0.439660000000     0.560340000000     0.276000000000     0          
C680     C      0.391250000000     0.608750000000     0.244280000000     0          
C681     C      0.371100000000     0.628900000000     0.346220000000     0          
H682     H      0.362970000000     0.637040000000     0.387900000000     0          
C683     C      0.401000000000     0.599000000000     0.192300000000     0          
O684     O      0.205780000000     0.705780000000     0.863230000000     0          
O685     O      0.167360000000     0.667360000000     0.922310000000     0          
C686     C      0.177350000000     0.677350000000     0.876590000000     0          
C687     C      0.153400000000     0.653400000000     0.834670000000     0          
C688     C      0.163300000000     0.663300000000     0.785120000000     0          
H689     H      0.189660000000     0.689660000000     0.776000000000     0          
C690     C      0.141250000000     0.641250000000     0.744280000000     0          
C691     C      0.121100000000     0.621100000000     0.846220000000     0          
H692     H      0.112970000000     0.612960000000     0.887900000000     0          
C693     C      0.151000000000     0.651000000000     0.692300000000     0          
O694     O      0.455770000000     0.955770000000     0.363230000000     0          
O695     O      0.417360000000     0.917350000000     0.422310000000     0          
C696     C      0.427350000000     0.927350000000     0.376590000000     0          
C697     C      0.403400000000     0.903400000000     0.334670000000     0          
C698     C      0.413300000000     0.913300000000     0.285120000000     0          
H699     H      0.439660000000     0.939660000000     0.276000000000     0          
C700     C      0.391250000000     0.891250000000     0.244280000000     0          
C701     C      0.371100000000     0.871100000000     0.346220000000     0          
H702     H      0.362970000000     0.862970000000     0.387900000000     0          
C703     C      0.401000000000     0.901000000000     0.192300000000     0          
O704     O      0.294230000000     0.794220000000     0.863230000000     0          
O705     O      0.332640000000     0.832650000000     0.922310000000     0          
C706     C      0.322650000000     0.822650000000     0.876590000000     0          
C707     C      0.346600000000     0.846600000000     0.834670000000     0          
C708     C      0.336700000000     0.836700000000     0.785120000000     0          
H709     H      0.310340000000     0.810340000000     0.776000000000     0          
C710     C      0.358750000000     0.858750000000     0.744280000000     0          
C711     C      0.378900000000     0.878900000000     0.846220000000     0          
H712     H      0.387040000000     0.887030000000     0.887900000000     0          
C713     C      0.349000000000     0.849000000000     0.692300000000     0          
O714     O      0.044220000000     0.544220000000     0.363230000000     0          
O715     O      0.082640000000     0.582640000000     0.422310000000     0          
C716     C      0.072650000000     0.572650000000     0.376590000000     0          
C717     C      0.096600000000     0.596600000000     0.334670000000     0          
C718     C      0.086700000000     0.586700000000     0.285120000000     0          
H719     H      0.060340000000     0.560340000000     0.276000000000     0          
C720     C      0.108750000000     0.608750000000     0.244280000000     0          
C721     C      0.128900000000     0.628900000000     0.346220000000     0          
H722     H      0.137040000000     0.637040000000     0.387900000000     0          
C723     C      0.099000000000     0.599000000000     0.192300000000     0          
O724     O      0.117150000000     0.696500000000     0.000000000000     0          
O725     O      0.112900000000     0.621550000000     0.000000000000     0          
C726     C      0.092700000000     0.662500000000     0.000000000000     0          
C727     C      0.044300000000     0.667150000000     0.000000000000     0          
C728     C      0.023750000000     0.709900000000     0.000000000000     0          
C729     C      0.023600000000     0.626150000000     0.000000000000     0          
N730     N      0.040500000000     0.584050000000     0.000000000000     0          
O731     O      0.367150000000     0.946500000000     0.500000000000     0          
O732     O      0.382850000000     0.803500000000     0.000000000000     0          
O733     O      0.387100000000     0.878450000000     0.000000000000     0          
C734     C      0.407300000000     0.837500000000     0.000000000000     0          
C735     C      0.455700000000     0.832850000000     0.000000000000     0          
C736     C      0.476250000000     0.790100000000     0.000000000000     0          
C737     C      0.476400000000     0.873850000000     0.000000000000     0          
N738     N      0.459500000000     0.915950000000     0.000000000000     0          
O739     O      0.132850000000     0.553500000000     0.500000000000     0          
O740     O      0.303500000000     0.617150000000     0.000000000000     0          
O741     O      0.378450000000     0.612900000000     0.000000000000     0          
C742     C      0.337500000000     0.592700000000     0.000000000000     0          
C743     C      0.332850000000     0.544300000000     0.000000000000     0          
C744     C      0.290100000000     0.523750000000     0.000000000000     0          
C745     C      0.373850000000     0.523600000000     0.000000000000     0          
N746     N      0.415950000000     0.540500000000     0.000000000000     0          
O747     O      0.053500000000     0.867150000000     0.500000000000     0          
O748     O      0.128450000000     0.862900000000     0.500000000000     0          
C749     C      0.087500000000     0.842700000000     0.500000000000     0          
C750     C      0.082850000000     0.794300000000     0.500000000000     0          
C751     C      0.040100000000     0.773750000000     0.500000000000     0          
C752     C      0.123850000000     0.773600000000     0.500000000000     0          
N753     N      0.165950000000     0.790500000000     0.500000000000     0          
O754     O      0.196500000000     0.882850000000     0.000000000000     0          
O755     O      0.121550000000     0.887100000000     0.000000000000     0          
C756     C      0.162500000000     0.907300000000     0.000000000000     0          
C757     C      0.167150000000     0.955700000000     0.000000000000     0          
C758     C      0.209900000000     0.976250000000     0.000000000000     0          
C759     C      0.126150000000     0.976400000000     0.000000000000     0          
N760     N      0.084050000000     0.959500000000     0.000000000000     0          
O761     O      0.446500000000     0.632850000000     0.500000000000     0          
O762     O      0.371550000000     0.637100000000     0.500000000000     0          
C763     C      0.412500000000     0.657300000000     0.500000000000     0          
C764     C      0.417150000000     0.705700000000     0.500000000000     0          
C765     C      0.459900000000     0.726250000000     0.500000000000     0          
C766     C      0.376150000000     0.726400000000     0.500000000000     0          
N767     N      0.334050000000     0.709500000000     0.500000000000     0          
O768     O      0.382850000000     0.696500000000     0.000000000000     0          
O769     O      0.132850000000     0.946500000000     0.500000000000     0          
O770     O      0.117150000000     0.803500000000     0.000000000000     0          
O771     O      0.367150000000     0.553500000000     0.500000000000     0          
O772     O      0.196500000000     0.617150000000     0.000000000000     0          
O773     O      0.446500000000     0.867150000000     0.500000000000     0          
O774     O      0.371550000000     0.862900000000     0.500000000000     0          
C775     C      0.412500000000     0.842700000000     0.500000000000     0          
C776     C      0.417150000000     0.794300000000     0.500000000000     0          
C777     C      0.459900000000     0.773750000000     0.500000000000     0          
C778     C      0.376150000000     0.773600000000     0.500000000000     0          
O779     O      0.303500000000     0.882850000000     0.000000000000     0          
O780     O      0.053500000000     0.632850000000     0.500000000000     0          
O781     O      0.128450000000     0.637100000000     0.500000000000     0          
C782     C      0.087500000000     0.657300000000     0.500000000000     0          
C783     C      0.082850000000     0.705700000000     0.500000000000     0          
C784     C      0.040100000000     0.726250000000     0.500000000000     0          
C785     C      0.123850000000     0.726400000000     0.500000000000     0          
O786     O      0.019470000000     0.555610000000     0.987130000000     0          
O787     O      0.424640000000     0.921950000000     0.987130000000     0          
O788     O      0.441950000000     0.525550000000     0.974920000000     0          
O789     O      0.191950000000     0.775550000000     0.474920000000     0          
O790     O      0.075610000000     0.930720000000     0.974920000000     0          
O791     O      0.325600000000     0.680730000000     0.474920000000     0          
O792     O      0.075360000000     0.578050000000     0.012870000000     0          
O793     O      0.480530000000     0.944390000000     0.012870000000     0          
O794     O      0.424400000000     0.569270000000     0.025080000000     0          
O795     O      0.174390000000     0.819280000000     0.525080000000     0          
O796     O      0.058060000000     0.974450000000     0.025080000000     0          
O797     O      0.308060000000     0.724450000000     0.525080000000     0          
H798     H      0.045240000000     0.741380000000     0.000000000000     0          
H799     H      0.454760000000     0.758620000000     0.000000000000     0          
H800     H      0.258620000000     0.545250000000     0.000000000000     0          
H801     H      0.008620000000     0.795250000000     0.500000000000     0          
H802     H      0.241380000000     0.954750000000     0.000000000000     0          
H803     H      0.491370000000     0.704760000000     0.500000000000     0          
H804     H      0.491370000000     0.795250000000     0.500000000000     0          
H805     H      0.344260000000     0.794470000000     0.500000000000     0          
H806     H      0.008620000000     0.704760000000     0.500000000000     0          
H807     H      0.155740000000     0.705520000000     0.500000000000     0          
Zr808    Zr     0.750000000000     0.750000000000     0.094090000000     0          
Zr809    Zr     0.500000000000     0.500000000000     0.594090000000     0          
Zr810    Zr     0.750000000000     0.750000000000     0.905910000000     0          
Zr811    Zr     0.500000000000     0.500000000000     0.405910000000     0          
Zr812    Zr     0.690810000000     0.690810000000     0.000000000000     0          
Zr813    Zr     0.940800000000     0.940800000000     0.500000000000     0          
Zr814    Zr     0.809200000000     0.809190000000     0.000000000000     0          
Zr815    Zr     0.559200000000     0.559200000000     0.500000000000     0          
Zr816    Zr     0.809200000000     0.690810000000     0.000000000000     0          
Zr817    Zr     0.559200000000     0.940800000000     0.500000000000     0          
Zr818    Zr     0.690810000000     0.809190000000     0.000000000000     0          
Zr819    Zr     0.940800000000     0.559200000000     0.500000000000     0          
O820     O      0.750000000000     0.690800000000     0.045170000000     0          
O821     O      0.500000000000     0.940800000000     0.545170000000     0          
O822     O      0.750000000000     0.809200000000     0.045170000000     0          
O823     O      0.500000000000     0.559200000000     0.545170000000     0          
O824     O      0.809200000000     0.750000000000     0.045170000000     0          
O825     O      0.559200000000     0.500000000000     0.545170000000     0          
O826     O      0.690800000000     0.750000000000     0.045170000000     0          
O827     O      0.940800000000     0.500000000000     0.545170000000     0          
O828     O      0.750000000000     0.690800000000     0.954830000000     0          
O829     O      0.500000000000     0.940800000000     0.454830000000     0          
O830     O      0.750000000000     0.809200000000     0.954830000000     0          
O831     O      0.500000000000     0.559200000000     0.454830000000     0          
O832     O      0.690800000000     0.750000000000     0.954830000000     0          
O833     O      0.940800000000     0.500000000000     0.454830000000     0          
O834     O      0.809200000000     0.750000000000     0.954830000000     0          
O835     O      0.559200000000     0.500000000000     0.454830000000     0          
O836     O      0.705780000000     0.705780000000     0.136770000000     0          
O837     O      0.667360000000     0.667360000000     0.077690000000     0          
C838     C      0.677350000000     0.677350000000     0.123410000000     0          
C839     C      0.653400000000     0.653400000000     0.165330000000     0          
C840     C      0.663300000000     0.663300000000     0.214880000000     0          
H841     H      0.689660000000     0.689660000000     0.224000000000     0          
C842     C      0.641250000000     0.641250000000     0.255720000000     0          
C843     C      0.621100000000     0.621100000000     0.153780000000     0          
H844     H      0.612960000000     0.612960000000     0.112100000000     0          
C845     C      0.651000000000     0.651000000000     0.307700000000     0          
O846     O      0.955770000000     0.955770000000     0.636770000000     0          
O847     O      0.917350000000     0.917350000000     0.577690000000     0          
C848     C      0.927350000000     0.927350000000     0.623410000000     0          
C849     C      0.903400000000     0.903400000000     0.665330000000     0          
C850     C      0.913300000000     0.913300000000     0.714880000000     0          
H851     H      0.939660000000     0.939660000000     0.724000000000     0          
C852     C      0.891250000000     0.891250000000     0.755720000000     0          
C853     C      0.871100000000     0.871100000000     0.653780000000     0          
H854     H      0.862960000000     0.862970000000     0.612100000000     0          
C855     C      0.901000000000     0.901000000000     0.807700000000     0          
O856     O      0.794230000000     0.794220000000     0.136770000000     0          
O857     O      0.832640000000     0.832650000000     0.077690000000     0          
C858     C      0.822650000000     0.822650000000     0.123410000000     0          
C859     C      0.846600000000     0.846600000000     0.165330000000     0          
C860     C      0.836700000000     0.836700000000     0.214880000000     0          
H861     H      0.810340000000     0.810340000000     0.224000000000     0          
C862     C      0.858750000000     0.858750000000     0.255720000000     0          
C863     C      0.878900000000     0.878900000000     0.153780000000     0          
H864     H      0.887040000000     0.887030000000     0.112100000000     0          
C865     C      0.849000000000     0.849000000000     0.307700000000     0          
O866     O      0.544220000000     0.544220000000     0.636770000000     0          
O867     O      0.582640000000     0.582640000000     0.577690000000     0          
C868     C      0.572650000000     0.572650000000     0.623410000000     0          
C869     C      0.596600000000     0.596600000000     0.665330000000     0          
C870     C      0.586700000000     0.586700000000     0.714880000000     0          
H871     H      0.560340000000     0.560340000000     0.724000000000     0          
C872     C      0.608750000000     0.608750000000     0.755720000000     0          
C873     C      0.628900000000     0.628900000000     0.653780000000     0          
H874     H      0.637040000000     0.637040000000     0.612100000000     0          
C875     C      0.599000000000     0.599000000000     0.807700000000     0          
O876     O      0.794230000000     0.705780000000     0.136770000000     0          
O877     O      0.832640000000     0.667360000000     0.077690000000     0          
C878     C      0.822650000000     0.677350000000     0.123410000000     0          
C879     C      0.846600000000     0.653400000000     0.165330000000     0          
C880     C      0.836700000000     0.663300000000     0.214880000000     0          
H881     H      0.810340000000     0.689660000000     0.224000000000     0          
C882     C      0.858750000000     0.641250000000     0.255720000000     0          
C883     C      0.878900000000     0.621100000000     0.153780000000     0          
H884     H      0.887040000000     0.612960000000     0.112100000000     0          
C885     C      0.849000000000     0.651000000000     0.307700000000     0          
O886     O      0.544220000000     0.955770000000     0.636770000000     0          
O887     O      0.582640000000     0.917350000000     0.577690000000     0          
C888     C      0.572650000000     0.927350000000     0.623410000000     0          
C889     C      0.596600000000     0.903400000000     0.665330000000     0          
C890     C      0.586700000000     0.913300000000     0.714880000000     0          
H891     H      0.560340000000     0.939660000000     0.724000000000     0          
C892     C      0.608750000000     0.891250000000     0.755720000000     0          
C893     C      0.628900000000     0.871100000000     0.653780000000     0          
H894     H      0.637040000000     0.862970000000     0.612100000000     0          
C895     C      0.599000000000     0.901000000000     0.807700000000     0          
O896     O      0.705780000000     0.794220000000     0.136770000000     0          
O897     O      0.667360000000     0.832650000000     0.077690000000     0          
C898     C      0.677350000000     0.822650000000     0.123410000000     0          
C899     C      0.653400000000     0.846600000000     0.165330000000     0          
C900     C      0.663300000000     0.836700000000     0.214880000000     0          
H901     H      0.689660000000     0.810340000000     0.224000000000     0          
C902     C      0.641250000000     0.858750000000     0.255720000000     0          
C903     C      0.621100000000     0.878900000000     0.153780000000     0          
H904     H      0.612960000000     0.887030000000     0.112100000000     0          
C905     C      0.651000000000     0.849000000000     0.307700000000     0          
O906     O      0.955770000000     0.544220000000     0.636770000000     0          
O907     O      0.917350000000     0.582640000000     0.577690000000     0          
C908     C      0.927350000000     0.572650000000     0.623410000000     0          
C909     C      0.903400000000     0.596600000000     0.665330000000     0          
C910     C      0.913300000000     0.586700000000     0.714880000000     0          
H911     H      0.939660000000     0.560340000000     0.724000000000     0          
C912     C      0.891250000000     0.608750000000     0.755720000000     0          
C913     C      0.871100000000     0.628900000000     0.653780000000     0          
H914     H      0.862960000000     0.637040000000     0.612100000000     0          
C915     C      0.901000000000     0.599000000000     0.807700000000     0          
O916     O      0.794230000000     0.705780000000     0.863230000000     0          
O917     O      0.832640000000     0.667360000000     0.922310000000     0          
C918     C      0.822650000000     0.677350000000     0.876590000000     0          
C919     C      0.846600000000     0.653400000000     0.834670000000     0          
C920     C      0.836700000000     0.663300000000     0.785120000000     0          
H921     H      0.810340000000     0.689660000000     0.776000000000     0          
C922     C      0.858750000000     0.641250000000     0.744280000000     0          
C923     C      0.878900000000     0.621100000000     0.846220000000     0          
H924     H      0.887040000000     0.612960000000     0.887900000000     0          
C925     C      0.849000000000     0.651000000000     0.692300000000     0          
O926     O      0.544220000000     0.955770000000     0.363230000000     0          
O927     O      0.582640000000     0.917350000000     0.422310000000     0          
C928     C      0.572650000000     0.927350000000     0.376590000000     0          
C929     C      0.596600000000     0.903400000000     0.334670000000     0          
C930     C      0.586700000000     0.913300000000     0.285120000000     0          
H931     H      0.560340000000     0.939660000000     0.276000000000     0          
C932     C      0.608750000000     0.891250000000     0.244280000000     0          
C933     C      0.628900000000     0.871100000000     0.346220000000     0          
H934     H      0.637040000000     0.862970000000     0.387900000000     0          
C935     C      0.599000000000     0.901000000000     0.192300000000     0          
O936     O      0.705780000000     0.794220000000     0.863230000000     0          
O937     O      0.667360000000     0.832650000000     0.922310000000     0          
C938     C      0.677350000000     0.822650000000     0.876590000000     0          
C939     C      0.653400000000     0.846600000000     0.834670000000     0          
C940     C      0.663300000000     0.836700000000     0.785120000000     0          
H941     H      0.689660000000     0.810340000000     0.776000000000     0          
C942     C      0.641250000000     0.858750000000     0.744280000000     0          
C943     C      0.621100000000     0.878900000000     0.846220000000     0          
H944     H      0.612960000000     0.887030000000     0.887900000000     0          
C945     C      0.651000000000     0.849000000000     0.692300000000     0          
O946     O      0.955770000000     0.544220000000     0.363230000000     0          
O947     O      0.917350000000     0.582640000000     0.422310000000     0          
C948     C      0.927350000000     0.572650000000     0.376590000000     0          
C949     C      0.903400000000     0.596600000000     0.334670000000     0          
C950     C      0.913300000000     0.586700000000     0.285120000000     0          
H951     H      0.939660000000     0.560340000000     0.276000000000     0          
C952     C      0.891250000000     0.608750000000     0.244280000000     0          
C953     C      0.871100000000     0.628900000000     0.346220000000     0          
H954     H      0.862960000000     0.637040000000     0.387900000000     0          
C955     C      0.901000000000     0.599000000000     0.192300000000     0          
O956     O      0.705780000000     0.705780000000     0.863230000000     0          
O957     O      0.667360000000     0.667360000000     0.922310000000     0          
C958     C      0.677350000000     0.677350000000     0.876590000000     0          
C959     C      0.653400000000     0.653400000000     0.834670000000     0          
C960     C      0.663300000000     0.663300000000     0.785120000000     0          
H961     H      0.689660000000     0.689660000000     0.776000000000     0          
C962     C      0.641250000000     0.641250000000     0.744280000000     0          
C963     C      0.621100000000     0.621100000000     0.846220000000     0          
H964     H      0.612960000000     0.612960000000     0.887900000000     0          
C965     C      0.651000000000     0.651000000000     0.692300000000     0          
O966     O      0.955770000000     0.955770000000     0.363230000000     0          
O967     O      0.917350000000     0.917350000000     0.422310000000     0          
C968     C      0.927350000000     0.927350000000     0.376590000000     0          
C969     C      0.903400000000     0.903400000000     0.334670000000     0          
C970     C      0.913300000000     0.913300000000     0.285120000000     0          
H971     H      0.939660000000     0.939660000000     0.276000000000     0          
C972     C      0.891250000000     0.891250000000     0.244280000000     0          
C973     C      0.871100000000     0.871100000000     0.346220000000     0          
H974     H      0.862960000000     0.862970000000     0.387900000000     0          
C975     C      0.901000000000     0.901000000000     0.192300000000     0          
O976     O      0.794230000000     0.794220000000     0.863230000000     0          
O977     O      0.832640000000     0.832650000000     0.922310000000     0          
C978     C      0.822650000000     0.822650000000     0.876590000000     0          
C979     C      0.846600000000     0.846600000000     0.834670000000     0          
C980     C      0.836700000000     0.836700000000     0.785120000000     0          
H981     H      0.810340000000     0.810340000000     0.776000000000     0          
C982     C      0.858750000000     0.858750000000     0.744280000000     0          
C983     C      0.878900000000     0.878900000000     0.846220000000     0          
H984     H      0.887040000000     0.887030000000     0.887900000000     0          
C985     C      0.849000000000     0.849000000000     0.692300000000     0          
O986     O      0.544220000000     0.544220000000     0.363230000000     0          
O987     O      0.582640000000     0.582640000000     0.422310000000     0          
C988     C      0.572650000000     0.572650000000     0.376590000000     0          
C989     C      0.596600000000     0.596600000000     0.334670000000     0          
C990     C      0.586700000000     0.586700000000     0.285120000000     0          
H991     H      0.560340000000     0.560340000000     0.276000000000     0          
C992     C      0.608750000000     0.608750000000     0.244280000000     0          
C993     C      0.628900000000     0.628900000000     0.346220000000     0          
H994     H      0.637040000000     0.637040000000     0.387900000000     0          
C995     C      0.599000000000     0.599000000000     0.192300000000     0          
O996     O      0.617150000000     0.696500000000     0.000000000000     0          
O997     O      0.867150000000     0.946500000000     0.500000000000     0          
O998     O      0.862900000000     0.871550000000     0.500000000000     0          
C999     C      0.842700000000     0.912500000000     0.500000000000     0          
C1000    C      0.794300000000     0.917150000000     0.500000000000     0          
C1001    C      0.773750000000     0.959900000000     0.500000000000     0          
C1002    C      0.773600000000     0.876150000000     0.500000000000     0          
N1003    N      0.790500000000     0.834050000000     0.500000000000     0          
O1004    O      0.882850000000     0.803500000000     0.000000000000     0          
O1005    O      0.632850000000     0.553500000000     0.500000000000     0          
O1006    O      0.637100000000     0.628450000000     0.500000000000     0          
C1007    C      0.657300000000     0.587500000000     0.500000000000     0          
C1008    C      0.705700000000     0.582850000000     0.500000000000     0          
C1009    C      0.726250000000     0.540100000000     0.500000000000     0          
C1010    C      0.726400000000     0.623850000000     0.500000000000     0          
N1011    N      0.709500000000     0.665950000000     0.500000000000     0          
O1012    O      0.803500000000     0.617150000000     0.000000000000     0          
O1013    O      0.553500000000     0.867150000000     0.500000000000     0          
O1014    O      0.696500000000     0.882850000000     0.000000000000     0          
O1015    O      0.946500000000     0.632850000000     0.500000000000     0          
O1016    O      0.882850000000     0.696500000000     0.000000000000     0          
O1017    O      0.887100000000     0.621550000000     0.000000000000     0          
C1018    C      0.907300000000     0.662500000000     0.000000000000     0          
C1019    C      0.955700000000     0.667150000000     0.000000000000     0          
C1020    C      0.976250000000     0.709900000000     0.000000000000     0          
C1021    C      0.976400000000     0.626150000000     0.000000000000     0          
O1022    O      0.632850000000     0.946500000000     0.500000000000     0          
O1023    O      0.637100000000     0.871550000000     0.500000000000     0          
C1024    C      0.657300000000     0.912500000000     0.500000000000     0          
C1025    C      0.705700000000     0.917150000000     0.500000000000     0          
C1026    C      0.726250000000     0.959900000000     0.500000000000     0          
C1027    C      0.726400000000     0.876150000000     0.500000000000     0          
O1028    O      0.617150000000     0.803500000000     0.000000000000     0          
O1029    O      0.612900000000     0.878450000000     0.000000000000     0          
C1030    C      0.592700000000     0.837500000000     0.000000000000     0          
C1031    C      0.544300000000     0.832850000000     0.000000000000     0          
C1032    C      0.523750000000     0.790100000000     0.000000000000     0          
C1033    C      0.523600000000     0.873850000000     0.000000000000     0          
O1034    O      0.867150000000     0.553500000000     0.500000000000     0          
O1035    O      0.862900000000     0.628450000000     0.500000000000     0          
C1036    C      0.842700000000     0.587500000000     0.500000000000     0          
C1037    C      0.794300000000     0.582850000000     0.500000000000     0          
C1038    C      0.773750000000     0.540100000000     0.500000000000     0          
C1039    C      0.773600000000     0.623850000000     0.500000000000     0          
O1040    O      0.696500000000     0.617150000000     0.000000000000     0          
O1041    O      0.621550000000     0.612900000000     0.000000000000     0          
C1042    C      0.662500000000     0.592700000000     0.000000000000     0          
C1043    C      0.667150000000     0.544300000000     0.000000000000     0          
C1044    C      0.709900000000     0.523750000000     0.000000000000     0          
C1045    C      0.626150000000     0.523600000000     0.000000000000     0          
O1046    O      0.946500000000     0.867150000000     0.500000000000     0          
O1047    O      0.803500000000     0.882850000000     0.000000000000     0          
O1048    O      0.878450000000     0.887100000000     0.000000000000     0          
C1049    C      0.837500000000     0.907300000000     0.000000000000     0          
C1050    C      0.832850000000     0.955700000000     0.000000000000     0          
C1051    C      0.790100000000     0.976250000000     0.000000000000     0          
C1052    C      0.873850000000     0.976400000000     0.000000000000     0          
O1053    O      0.553500000000     0.632850000000     0.500000000000     0          
O1054    O      0.769460000000     0.805610000000     0.487130000000     0          
O1055    O      0.674640000000     0.671950000000     0.487130000000     0          
O1056    O      0.825360000000     0.828050000000     0.512870000000     0          
O1057    O      0.730540000000     0.694390000000     0.512870000000     0          
H1058    H      0.795250000000     0.991370000000     0.500000000000     0          
H1059    H      0.704760000000     0.508620000000     0.500000000000     0          
H1060    H      0.954750000000     0.741380000000     0.000000000000     0          
H1061    H      0.955520000000     0.594260000000     0.000000000000     0          
H1062    H      0.704760000000     0.991370000000     0.500000000000     0          
H1063    H      0.545250000000     0.758620000000     0.000000000000     0          
H1064    H      0.544480000000     0.905740000000     0.000000000000     0          
H1065    H      0.795250000000     0.508620000000     0.500000000000     0          
H1066    H      0.794470000000     0.655740000000     0.500000000000     0          
H1067    H      0.741370000000     0.545250000000     0.000000000000     0          
H1068    H      0.594260000000     0.544480000000     0.000000000000     0          
H1069    H      0.758620000000     0.954750000000     0.000000000000     0          
H1070    H      0.905740000000     0.955520000000     0.000000000000     0          


