data_ZOKYEG

_audit_creation_method RASPA-1.0
_audit_creation_date 2020-11-2
_audit_author_name 'Rocio Bueno-Perez'

_cell_length_a    43.0713
_cell_length_b    43.0713
_cell_length_c    43.0713
_cell_angle_alpha 60
_cell_angle_beta  60
_cell_angle_gamma 60
_cell_volume      56500.1

_symmetry_cell_setting          triclinic
_symmetry_space_group_name_Hall 'P 1'
_symmetry_space_group_name_H-M  'P 1'
_symmetry_Int_Tables_number     1

_symmetry_equiv_pos_as_xyz 'x,y,z'

loop_
_atom_site_label
_atom_site_type_symbol
_atom_site_fract_x
_atom_site_fract_y
_atom_site_fract_z
_atom_site_charge
O1       O      0.052690000000     0.991130000000     0.560890000000     0          
O2       O      0.096450000000     0.991550000000     0.503110000000     0          
H3       H      0.070600000000     0.016800000000     0.588600000000     0          
C4       C      0.086220000000     0.988200000000     0.538040000000     0          
N5       N      0.175900000000     0.008900000000     0.606960000000     0          
C6       C      0.189050000000     0.991230000000     0.580470000000     0          
C7       C      0.167340000000     0.981480000000     0.571460000000     0          
C8       C      0.126030000000     0.993410000000     0.593730000000     0          
H9       H      0.116800000000     0.003200000000     0.612800000000     0          
C10      C      0.101470000000     0.989150000000     0.584230000000     0          
C11      C      0.114400000000     0.982400000000     0.551000000000     0          
C12      C      0.152320000000     0.972660000000     0.531340000000     0          
H13      H      0.160300000000     0.967500000000     0.509500000000     0          
C14      C      0.180380000000     0.969720000000     0.541100000000     0          
H15      H      0.206200000000     0.960400000000     0.528000000000     0          
O16      O      0.991130000000     0.052690000000     0.395290000000     0          
O17      O      0.991550000000     0.096450000000     0.408890000000     0          
H18      H      0.016800000000     0.070600000000     0.324000000000     0          
H19      H      0.990700000000     0.156300000000     0.353900000000     0          
H20      H      0.987400000000     0.198600000000     0.295000000000     0          
C21      C      0.988200000000     0.086220000000     0.387540000000     0          
N22      N      0.008900000000     0.175900000000     0.208240000000     0          
C23      C      0.991230000000     0.189050000000     0.239250000000     0          
C24      C      0.981480000000     0.167340000000     0.279720000000     0          
C25      C      0.993410000000     0.126030000000     0.286830000000     0          
H26      H      0.003200000000     0.116800000000     0.267200000000     0          
C27      C      0.989150000000     0.101470000000     0.325150000000     0          
C28      C      0.982400000000     0.114400000000     0.352200000000     0          
C29      C      0.972660000000     0.152320000000     0.343680000000     0          
C30      C      0.969720000000     0.180380000000     0.308800000000     0          
O31      O      0.560890000000     0.395290000000     0.052690000000     0          
H32      H      0.499100000000     0.353900000000     0.156300000000     0          
H33      H      0.519000000000     0.295000000000     0.198600000000     0          
C34      C      0.538040000000     0.387540000000     0.086220000000     0          
O35      O      0.509810000000     0.415150000000     0.099890000000     0          
N36      N      0.606960000000     0.208240000000     0.175900000000     0          
C37      C      0.580470000000     0.239250000000     0.189050000000     0          
C38      C      0.571460000000     0.279720000000     0.167340000000     0          
C39      C      0.593730000000     0.286830000000     0.126030000000     0          
H40      H      0.612800000000     0.267200000000     0.116800000000     0          
C41      C      0.584230000000     0.325150000000     0.101470000000     0          
H42      H      0.600400000000     0.332000000000     0.076600000000     0          
C43      C      0.551000000000     0.352200000000     0.114400000000     0          
C44      C      0.531340000000     0.343680000000     0.152320000000     0          
C45      C      0.541100000000     0.308800000000     0.180380000000     0          
O46      O      0.395290000000     0.560890000000     0.991130000000     0          
O47      O      0.408890000000     0.503110000000     0.991550000000     0          
H48      H      0.324000000000     0.588600000000     0.016800000000     0          
C49      C      0.387540000000     0.538040000000     0.988200000000     0          
O50      O      0.415150000000     0.509810000000     0.975150000000     0          
N51      N      0.208240000000     0.606960000000     0.008900000000     0          
C52      C      0.239250000000     0.580470000000     0.991230000000     0          
C53      C      0.279720000000     0.571460000000     0.981480000000     0          
C54      C      0.286830000000     0.593730000000     0.993410000000     0          
H55      H      0.267200000000     0.612800000000     0.003200000000     0          
C56      C      0.325150000000     0.584230000000     0.989150000000     0          
C57      C      0.352200000000     0.551000000000     0.982400000000     0          
C58      C      0.343680000000     0.531340000000     0.972660000000     0          
H59      H      0.362700000000     0.509500000000     0.967500000000     0          
C60      C      0.308800000000     0.541100000000     0.969720000000     0          
H61      H      0.305400000000     0.528000000000     0.960400000000     0          
O62      O      0.560890000000     0.052690000000     0.991130000000     0          
O63      O      0.503110000000     0.096450000000     0.991550000000     0          
H64      H      0.499100000000     0.156300000000     0.990700000000     0          
H65      H      0.519000000000     0.198600000000     0.987400000000     0          
C66      C      0.538040000000     0.086220000000     0.988200000000     0          
N67      N      0.606960000000     0.175900000000     0.008900000000     0          
C68      C      0.580470000000     0.189050000000     0.991230000000     0          
C69      C      0.571460000000     0.167340000000     0.981480000000     0          
C70      C      0.593730000000     0.126030000000     0.993410000000     0          
H71      H      0.612800000000     0.116800000000     0.003200000000     0          
C72      C      0.584230000000     0.101470000000     0.989150000000     0          
H73      H      0.600400000000     0.076600000000     0.991000000000     0          
C74      C      0.551000000000     0.114400000000     0.982400000000     0          
C75      C      0.531340000000     0.152320000000     0.972660000000     0          
C76      C      0.541100000000     0.180380000000     0.969720000000     0          
O77      O      0.395290000000     0.991130000000     0.052690000000     0          
O78      O      0.408890000000     0.991550000000     0.096450000000     0          
H79      H      0.353900000000     0.990700000000     0.156300000000     0          
H80      H      0.295000000000     0.987400000000     0.198600000000     0          
C81      C      0.387540000000     0.988200000000     0.086220000000     0          
N82      N      0.208240000000     0.008900000000     0.175900000000     0          
C83      C      0.239250000000     0.991230000000     0.189050000000     0          
C84      C      0.279720000000     0.981480000000     0.167340000000     0          
C85      C      0.286830000000     0.993410000000     0.126030000000     0          
H86      H      0.267200000000     0.003200000000     0.116800000000     0          
C87      C      0.325150000000     0.989150000000     0.101470000000     0          
H88      H      0.332000000000     0.991000000000     0.076600000000     0          
C89      C      0.352200000000     0.982400000000     0.114400000000     0          
C90      C      0.343680000000     0.972660000000     0.152320000000     0          
C91      C      0.308800000000     0.969720000000     0.180380000000     0          
O92      O      0.052690000000     0.560890000000     0.395290000000     0          
O93      O      0.096450000000     0.503110000000     0.408890000000     0          
H94      H      0.070600000000     0.588600000000     0.324000000000     0          
H95      H      0.156300000000     0.499100000000     0.353900000000     0          
C96      C      0.086220000000     0.538040000000     0.387540000000     0          
N97      N      0.175900000000     0.606960000000     0.208240000000     0          
C98      C      0.189050000000     0.580470000000     0.239250000000     0          
C99      C      0.167340000000     0.571460000000     0.279720000000     0          
C100     C      0.126030000000     0.593730000000     0.286830000000     0          
H101     H      0.116800000000     0.612800000000     0.267200000000     0          
C102     C      0.101470000000     0.584230000000     0.325150000000     0          
C103     C      0.114400000000     0.551000000000     0.352200000000     0          
C104     C      0.152320000000     0.531340000000     0.343680000000     0          
C105     C      0.180380000000     0.541100000000     0.308800000000     0          
H106     H      0.206200000000     0.528000000000     0.305400000000     0          
O107     O      0.991130000000     0.395290000000     0.560890000000     0          
O108     O      0.991550000000     0.408890000000     0.503110000000     0          
H109     H      0.016800000000     0.324000000000     0.588600000000     0          
C110     C      0.988200000000     0.387540000000     0.538040000000     0          
N111     N      0.008900000000     0.208240000000     0.606960000000     0          
C112     C      0.991230000000     0.239250000000     0.580470000000     0          
C113     C      0.981480000000     0.279720000000     0.571460000000     0          
C114     C      0.993410000000     0.286830000000     0.593730000000     0          
H115     H      0.003200000000     0.267200000000     0.612800000000     0          
C116     C      0.989150000000     0.325150000000     0.584230000000     0          
C117     C      0.982400000000     0.352200000000     0.551000000000     0          
C118     C      0.972660000000     0.343680000000     0.531340000000     0          
H119     H      0.967500000000     0.362700000000     0.509500000000     0          
C120     C      0.969720000000     0.308800000000     0.541100000000     0          
H121     H      0.960400000000     0.305400000000     0.528000000000     0          
O122     O      0.991130000000     0.560890000000     0.052690000000     0          
O123     O      0.991550000000     0.503110000000     0.096450000000     0          
H124     H      0.990700000000     0.499100000000     0.156300000000     0          
H125     H      0.987400000000     0.519000000000     0.198600000000     0          
C126     C      0.988200000000     0.538040000000     0.086220000000     0          
N127     N      0.008900000000     0.606960000000     0.175900000000     0          
C128     C      0.991230000000     0.580470000000     0.189050000000     0          
C129     C      0.981480000000     0.571460000000     0.167340000000     0          
C130     C      0.993410000000     0.593730000000     0.126030000000     0          
H131     H      0.003200000000     0.612800000000     0.116800000000     0          
C132     C      0.989150000000     0.584230000000     0.101470000000     0          
H133     H      0.991000000000     0.600400000000     0.076600000000     0          
C134     C      0.982400000000     0.551000000000     0.114400000000     0          
C135     C      0.972660000000     0.531340000000     0.152320000000     0          
C136     C      0.969720000000     0.541100000000     0.180380000000     0          
O137     O      0.052690000000     0.395290000000     0.991130000000     0          
O138     O      0.096450000000     0.408890000000     0.991550000000     0          
H139     H      0.070600000000     0.324000000000     0.016800000000     0          
H140     H      0.156300000000     0.353900000000     0.990700000000     0          
H141     H      0.198600000000     0.295000000000     0.987400000000     0          
C142     C      0.086220000000     0.387540000000     0.988200000000     0          
N143     N      0.175900000000     0.208240000000     0.008900000000     0          
C144     C      0.189050000000     0.239250000000     0.991230000000     0          
C145     C      0.167340000000     0.279720000000     0.981480000000     0          
C146     C      0.126030000000     0.286830000000     0.993410000000     0          
H147     H      0.116800000000     0.267200000000     0.003200000000     0          
C148     C      0.101470000000     0.325150000000     0.989150000000     0          
C149     C      0.114400000000     0.352200000000     0.982400000000     0          
C150     C      0.152320000000     0.343680000000     0.972660000000     0          
C151     C      0.180380000000     0.308800000000     0.969720000000     0          
O152     O      0.395290000000     0.052690000000     0.560890000000     0          
O153     O      0.408890000000     0.096450000000     0.503110000000     0          
H154     H      0.324000000000     0.070600000000     0.588600000000     0          
C155     C      0.387540000000     0.086220000000     0.538040000000     0          
N156     N      0.208240000000     0.175900000000     0.606960000000     0          
C157     C      0.239250000000     0.189050000000     0.580470000000     0          
C158     C      0.279720000000     0.167340000000     0.571460000000     0          
C159     C      0.286830000000     0.126030000000     0.593730000000     0          
H160     H      0.267200000000     0.116800000000     0.612800000000     0          
C161     C      0.325150000000     0.101470000000     0.584230000000     0          
C162     C      0.352200000000     0.114400000000     0.551000000000     0          
C163     C      0.343680000000     0.152320000000     0.531340000000     0          
H164     H      0.362700000000     0.160300000000     0.509500000000     0          
C165     C      0.308800000000     0.180380000000     0.541100000000     0          
H166     H      0.305400000000     0.206200000000     0.528000000000     0          
O167     O      0.560890000000     0.991130000000     0.395290000000     0          
O168     O      0.503110000000     0.991550000000     0.408890000000     0          
H169     H      0.588600000000     0.016800000000     0.324000000000     0          
H170     H      0.499100000000     0.990700000000     0.353900000000     0          
C171     C      0.538040000000     0.988200000000     0.387540000000     0          
N172     N      0.606960000000     0.008900000000     0.208240000000     0          
C173     C      0.580470000000     0.991230000000     0.239250000000     0          
C174     C      0.571460000000     0.981480000000     0.279720000000     0          
C175     C      0.593730000000     0.993410000000     0.286830000000     0          
H176     H      0.612800000000     0.003200000000     0.267200000000     0          
C177     C      0.584230000000     0.989150000000     0.325150000000     0          
C178     C      0.551000000000     0.982400000000     0.352200000000     0          
C179     C      0.531340000000     0.972660000000     0.343680000000     0          
C180     C      0.541100000000     0.969720000000     0.308800000000     0          
H181     H      0.528000000000     0.960400000000     0.305400000000     0          
O182     O      0.947310000000     0.008870000000     0.604710000000     0          
H183     H      0.929400000000     0.983200000000     0.676000000000     0          
C184     C      0.913780000000     0.011800000000     0.612460000000     0          
O185     O      0.900110000000     0.024850000000     0.584850000000     0          
N186     N      0.824100000000     0.991100000000     0.791760000000     0          
C187     C      0.810950000000     0.008770000000     0.760750000000     0          
C188     C      0.832660000000     0.018520000000     0.720280000000     0          
C189     C      0.873970000000     0.006590000000     0.713170000000     0          
H190     H      0.883200000000     0.996800000000     0.732800000000     0          
C191     C      0.898530000000     0.010850000000     0.674850000000     0          
C192     C      0.885600000000     0.017600000000     0.647800000000     0          
C193     C      0.847680000000     0.027340000000     0.656320000000     0          
H194     H      0.839700000000     0.032500000000     0.637300000000     0          
C195     C      0.819620000000     0.030280000000     0.691200000000     0          
H196     H      0.793800000000     0.039600000000     0.694600000000     0          
O197     O      0.008870000000     0.947310000000     0.439110000000     0          
H198     H      0.983200000000     0.929400000000     0.411400000000     0          
H199     H      0.009300000000     0.843700000000     0.500900000000     0          
H200     H      0.012600000000     0.801400000000     0.481000000000     0          
C201     C      0.011800000000     0.913780000000     0.461960000000     0          
O202     O      0.024850000000     0.900110000000     0.490190000000     0          
N203     N      0.991100000000     0.824100000000     0.393040000000     0          
C204     C      0.008770000000     0.810950000000     0.419530000000     0          
C205     C      0.018520000000     0.832660000000     0.428540000000     0          
C206     C      0.006590000000     0.873970000000     0.406270000000     0          
H207     H      0.996800000000     0.883200000000     0.387200000000     0          
C208     C      0.010850000000     0.898530000000     0.415770000000     0          
C209     C      0.017600000000     0.885600000000     0.449000000000     0          
C210     C      0.027340000000     0.847680000000     0.468660000000     0          
C211     C      0.030280000000     0.819620000000     0.458900000000     0          
O212     O      0.439110000000     0.604710000000     0.008870000000     0          
O213     O      0.496890000000     0.591110000000     0.008450000000     0          
H214     H      0.500900000000     0.646100000000     0.009300000000     0          
H215     H      0.481000000000     0.705000000000     0.012600000000     0          
C216     C      0.461960000000     0.612460000000     0.011800000000     0          
N217     N      0.393040000000     0.791760000000     0.991100000000     0          
C218     C      0.419530000000     0.760750000000     0.008770000000     0          
C219     C      0.428540000000     0.720280000000     0.018520000000     0          
C220     C      0.406270000000     0.713170000000     0.006590000000     0          
H221     H      0.387200000000     0.732800000000     0.996800000000     0          
C222     C      0.415770000000     0.674850000000     0.010850000000     0          
H223     H      0.399600000000     0.668000000000     0.009000000000     0          
C224     C      0.449000000000     0.647800000000     0.017600000000     0          
C225     C      0.468660000000     0.656320000000     0.027340000000     0          
C226     C      0.458900000000     0.691200000000     0.030280000000     0          
O227     O      0.604710000000     0.439110000000     0.947310000000     0          
H228     H      0.676000000000     0.411400000000     0.929400000000     0          
H229     H      0.705000000000     0.481000000000     0.801400000000     0          
C230     C      0.612460000000     0.461960000000     0.913780000000     0          
O231     O      0.584850000000     0.490190000000     0.900110000000     0          
N232     N      0.791760000000     0.393040000000     0.824100000000     0          
C233     C      0.760750000000     0.419530000000     0.810950000000     0          
C234     C      0.720280000000     0.428540000000     0.832660000000     0          
C235     C      0.713170000000     0.406270000000     0.873970000000     0          
H236     H      0.732800000000     0.387200000000     0.883200000000     0          
C237     C      0.674850000000     0.415770000000     0.898530000000     0          
C238     C      0.647800000000     0.449000000000     0.885600000000     0          
C239     C      0.656320000000     0.468660000000     0.847680000000     0          
H240     H      0.637300000000     0.490500000000     0.839700000000     0          
C241     C      0.691200000000     0.458900000000     0.819620000000     0          
O242     O      0.439110000000     0.947310000000     0.604710000000     0          
O243     O      0.496890000000     0.903550000000     0.591110000000     0          
H244     H      0.500900000000     0.843700000000     0.646100000000     0          
H245     H      0.481000000000     0.801400000000     0.705000000000     0          
C246     C      0.461960000000     0.913780000000     0.612460000000     0          
N247     N      0.393040000000     0.824100000000     0.791760000000     0          
C248     C      0.419530000000     0.810950000000     0.760750000000     0          
C249     C      0.428540000000     0.832660000000     0.720280000000     0          
C250     C      0.406270000000     0.873970000000     0.713170000000     0          
H251     H      0.387200000000     0.883200000000     0.732800000000     0          
C252     C      0.415770000000     0.898530000000     0.674850000000     0          
H253     H      0.399600000000     0.923400000000     0.668000000000     0          
C254     C      0.449000000000     0.885600000000     0.647800000000     0          
C255     C      0.468660000000     0.847680000000     0.656320000000     0          
C256     C      0.458900000000     0.819620000000     0.691200000000     0          
O257     O      0.604710000000     0.008870000000     0.439110000000     0          
O258     O      0.591110000000     0.008450000000     0.496890000000     0          
H259     H      0.646100000000     0.009300000000     0.500900000000     0          
H260     H      0.705000000000     0.012600000000     0.481000000000     0          
C261     C      0.612460000000     0.011800000000     0.461960000000     0          
N262     N      0.791760000000     0.991100000000     0.393040000000     0          
C263     C      0.760750000000     0.008770000000     0.419530000000     0          
C264     C      0.720280000000     0.018520000000     0.428540000000     0          
C265     C      0.713170000000     0.006590000000     0.406270000000     0          
H266     H      0.732800000000     0.996800000000     0.387200000000     0          
C267     C      0.674850000000     0.010850000000     0.415770000000     0          
H268     H      0.668000000000     0.009000000000     0.399600000000     0          
C269     C      0.647800000000     0.017600000000     0.449000000000     0          
C270     C      0.656320000000     0.027340000000     0.468660000000     0          
C271     C      0.691200000000     0.030280000000     0.458900000000     0          
O272     O      0.947310000000     0.439110000000     0.008870000000     0          
O273     O      0.903550000000     0.496890000000     0.008450000000     0          
H274     H      0.929400000000     0.411400000000     0.983200000000     0          
H275     H      0.843700000000     0.500900000000     0.009300000000     0          
H276     H      0.801400000000     0.481000000000     0.012600000000     0          
C277     C      0.913780000000     0.461960000000     0.011800000000     0          
O278     O      0.900110000000     0.490190000000     0.024850000000     0          
N279     N      0.824100000000     0.393040000000     0.991100000000     0          
C280     C      0.810950000000     0.419530000000     0.008770000000     0          
C281     C      0.832660000000     0.428540000000     0.018520000000     0          
C282     C      0.873970000000     0.406270000000     0.006590000000     0          
H283     H      0.883200000000     0.387200000000     0.996800000000     0          
C284     C      0.898530000000     0.415770000000     0.010850000000     0          
C285     C      0.885600000000     0.449000000000     0.017600000000     0          
C286     C      0.847680000000     0.468660000000     0.027340000000     0          
C287     C      0.819620000000     0.458900000000     0.030280000000     0          
O288     O      0.008870000000     0.604710000000     0.947310000000     0          
H289     H      0.983200000000     0.676000000000     0.929400000000     0          
H290     H      0.012600000000     0.705000000000     0.801400000000     0          
C291     C      0.011800000000     0.612460000000     0.913780000000     0          
O292     O      0.024850000000     0.584850000000     0.900110000000     0          
N293     N      0.991100000000     0.791760000000     0.824100000000     0          
C294     C      0.008770000000     0.760750000000     0.810950000000     0          
C295     C      0.018520000000     0.720280000000     0.832660000000     0          
C296     C      0.006590000000     0.713170000000     0.873970000000     0          
H297     H      0.996800000000     0.732800000000     0.883200000000     0          
C298     C      0.010850000000     0.674850000000     0.898530000000     0          
C299     C      0.017600000000     0.647800000000     0.885600000000     0          
C300     C      0.027340000000     0.656320000000     0.847680000000     0          
H301     H      0.032500000000     0.637300000000     0.839700000000     0          
C302     C      0.030280000000     0.691200000000     0.819620000000     0          
O303     O      0.008870000000     0.439110000000     0.604710000000     0          
O304     O      0.008450000000     0.496890000000     0.591110000000     0          
H305     H      0.009300000000     0.500900000000     0.646100000000     0          
H306     H      0.012600000000     0.481000000000     0.705000000000     0          
C307     C      0.011800000000     0.461960000000     0.612460000000     0          
N308     N      0.991100000000     0.393040000000     0.791760000000     0          
C309     C      0.008770000000     0.419530000000     0.760750000000     0          
C310     C      0.018520000000     0.428540000000     0.720280000000     0          
C311     C      0.006590000000     0.406270000000     0.713170000000     0          
H312     H      0.996800000000     0.387200000000     0.732800000000     0          
C313     C      0.010850000000     0.415770000000     0.674850000000     0          
H314     H      0.009000000000     0.399600000000     0.668000000000     0          
C315     C      0.017600000000     0.449000000000     0.647800000000     0          
C316     C      0.027340000000     0.468660000000     0.656320000000     0          
C317     C      0.030280000000     0.458900000000     0.691200000000     0          
O318     O      0.947310000000     0.604710000000     0.439110000000     0          
H319     H      0.929400000000     0.676000000000     0.411400000000     0          
H320     H      0.843700000000     0.646100000000     0.500900000000     0          
H321     H      0.801400000000     0.705000000000     0.481000000000     0          
C322     C      0.913780000000     0.612460000000     0.461960000000     0          
O323     O      0.900110000000     0.584850000000     0.490190000000     0          
N324     N      0.824100000000     0.791760000000     0.393040000000     0          
C325     C      0.810950000000     0.760750000000     0.419530000000     0          
C326     C      0.832660000000     0.720280000000     0.428540000000     0          
C327     C      0.873970000000     0.713170000000     0.406270000000     0          
H328     H      0.883200000000     0.732800000000     0.387200000000     0          
C329     C      0.898530000000     0.674850000000     0.415770000000     0          
C330     C      0.885600000000     0.647800000000     0.449000000000     0          
C331     C      0.847680000000     0.656320000000     0.468660000000     0          
C332     C      0.819620000000     0.691200000000     0.458900000000     0          
O333     O      0.604710000000     0.947310000000     0.008870000000     0          
H334     H      0.676000000000     0.929400000000     0.983200000000     0          
H335     H      0.705000000000     0.801400000000     0.012600000000     0          
C336     C      0.612460000000     0.913780000000     0.011800000000     0          
O337     O      0.584850000000     0.900110000000     0.024850000000     0          
N338     N      0.791760000000     0.824100000000     0.991100000000     0          
C339     C      0.760750000000     0.810950000000     0.008770000000     0          
C340     C      0.720280000000     0.832660000000     0.018520000000     0          
C341     C      0.713170000000     0.873970000000     0.006590000000     0          
H342     H      0.732800000000     0.883200000000     0.996800000000     0          
C343     C      0.674850000000     0.898530000000     0.010850000000     0          
C344     C      0.647800000000     0.885600000000     0.017600000000     0          
C345     C      0.656320000000     0.847680000000     0.027340000000     0          
H346     H      0.637300000000     0.839700000000     0.032500000000     0          
C347     C      0.691200000000     0.819620000000     0.030280000000     0          
O348     O      0.439110000000     0.008870000000     0.947310000000     0          
O349     O      0.496890000000     0.008450000000     0.903550000000     0          
H350     H      0.411400000000     0.983200000000     0.929400000000     0          
H351     H      0.500900000000     0.009300000000     0.843700000000     0          
H352     H      0.481000000000     0.012600000000     0.801400000000     0          
C353     C      0.461960000000     0.011800000000     0.913780000000     0          
N354     N      0.393040000000     0.991100000000     0.824100000000     0          
C355     C      0.419530000000     0.008770000000     0.810950000000     0          
C356     C      0.428540000000     0.018520000000     0.832660000000     0          
C357     C      0.406270000000     0.006590000000     0.873970000000     0          
H358     H      0.387200000000     0.996800000000     0.883200000000     0          
C359     C      0.415770000000     0.010850000000     0.898530000000     0          
C360     C      0.449000000000     0.017600000000     0.885600000000     0          
C361     C      0.468660000000     0.027340000000     0.847680000000     0          
C362     C      0.458900000000     0.030280000000     0.819620000000     0          
O363     O      0.947310000000     0.008870000000     0.439110000000     0          
H364     H      0.929400000000     0.983200000000     0.411400000000     0          
H365     H      0.843700000000     0.009300000000     0.500900000000     0          
H366     H      0.801400000000     0.012600000000     0.481000000000     0          
C367     C      0.913780000000     0.011800000000     0.461960000000     0          
O368     O      0.900110000000     0.024850000000     0.490190000000     0          
N369     N      0.824100000000     0.991100000000     0.393040000000     0          
C370     C      0.810950000000     0.008770000000     0.419530000000     0          
C371     C      0.832660000000     0.018520000000     0.428540000000     0          
C372     C      0.873970000000     0.006590000000     0.406270000000     0          
H373     H      0.883200000000     0.996800000000     0.387200000000     0          
C374     C      0.898530000000     0.010850000000     0.415770000000     0          
C375     C      0.885600000000     0.017600000000     0.449000000000     0          
C376     C      0.847680000000     0.027340000000     0.468660000000     0          
C377     C      0.819620000000     0.030280000000     0.458900000000     0          
O378     O      0.008870000000     0.947310000000     0.604710000000     0          
H379     H      0.983200000000     0.929400000000     0.676000000000     0          
C380     C      0.011800000000     0.913780000000     0.612460000000     0          
O381     O      0.024850000000     0.900110000000     0.584850000000     0          
N382     N      0.991100000000     0.824100000000     0.791760000000     0          
C383     C      0.008770000000     0.810950000000     0.760750000000     0          
C384     C      0.018520000000     0.832660000000     0.720280000000     0          
C385     C      0.006590000000     0.873970000000     0.713170000000     0          
H386     H      0.996800000000     0.883200000000     0.732800000000     0          
C387     C      0.010850000000     0.898530000000     0.674850000000     0          
C388     C      0.017600000000     0.885600000000     0.647800000000     0          
C389     C      0.027340000000     0.847680000000     0.656320000000     0          
H390     H      0.032500000000     0.839700000000     0.637300000000     0          
C391     C      0.030280000000     0.819620000000     0.691200000000     0          
H392     H      0.039600000000     0.793800000000     0.694600000000     0          
O393     O      0.439110000000     0.604710000000     0.947310000000     0          
O394     O      0.496890000000     0.591110000000     0.903550000000     0          
H395     H      0.411400000000     0.676000000000     0.929400000000     0          
H396     H      0.500900000000     0.646100000000     0.843700000000     0          
H397     H      0.481000000000     0.705000000000     0.801400000000     0          
C398     C      0.461960000000     0.612460000000     0.913780000000     0          
O399     O      0.490190000000     0.584850000000     0.900110000000     0          
N400     N      0.393040000000     0.791760000000     0.824100000000     0          
C401     C      0.419530000000     0.760750000000     0.810950000000     0          
C402     C      0.428540000000     0.720280000000     0.832660000000     0          
C403     C      0.406270000000     0.713170000000     0.873970000000     0          
H404     H      0.387200000000     0.732800000000     0.883200000000     0          
C405     C      0.415770000000     0.674850000000     0.898530000000     0          
C406     C      0.449000000000     0.647800000000     0.885600000000     0          
C407     C      0.468660000000     0.656320000000     0.847680000000     0          
C408     C      0.458900000000     0.691200000000     0.819620000000     0          
O409     O      0.604710000000     0.439110000000     0.008870000000     0          
O410     O      0.591110000000     0.496890000000     0.008450000000     0          
C411     C      0.612460000000     0.461960000000     0.011800000000     0          
N412     N      0.791760000000     0.393040000000     0.991100000000     0          
C413     C      0.760750000000     0.419530000000     0.008770000000     0          
C414     C      0.720280000000     0.428540000000     0.018520000000     0          
C415     C      0.713170000000     0.406270000000     0.006590000000     0          
H416     H      0.732800000000     0.387200000000     0.996800000000     0          
C417     C      0.674850000000     0.415770000000     0.010850000000     0          
H418     H      0.668000000000     0.399600000000     0.009000000000     0          
C419     C      0.647800000000     0.449000000000     0.017600000000     0          
C420     C      0.656320000000     0.468660000000     0.027340000000     0          
C421     C      0.691200000000     0.458900000000     0.030280000000     0          
O422     O      0.439110000000     0.947310000000     0.008870000000     0          
O423     O      0.496890000000     0.903550000000     0.008450000000     0          
H424     H      0.411400000000     0.929400000000     0.983200000000     0          
H425     H      0.500900000000     0.843700000000     0.009300000000     0          
H426     H      0.481000000000     0.801400000000     0.012600000000     0          
C427     C      0.461960000000     0.913780000000     0.011800000000     0          
N428     N      0.393040000000     0.824100000000     0.991100000000     0          
C429     C      0.419530000000     0.810950000000     0.008770000000     0          
C430     C      0.428540000000     0.832660000000     0.018520000000     0          
C431     C      0.406270000000     0.873970000000     0.006590000000     0          
H432     H      0.387200000000     0.883200000000     0.996800000000     0          
C433     C      0.415770000000     0.898530000000     0.010850000000     0          
C434     C      0.449000000000     0.885600000000     0.017600000000     0          
C435     C      0.468660000000     0.847680000000     0.027340000000     0          
C436     C      0.458900000000     0.819620000000     0.030280000000     0          
O437     O      0.604710000000     0.008870000000     0.947310000000     0          
H438     H      0.676000000000     0.983200000000     0.929400000000     0          
H439     H      0.705000000000     0.012600000000     0.801400000000     0          
C440     C      0.612460000000     0.011800000000     0.913780000000     0          
O441     O      0.584850000000     0.024850000000     0.900110000000     0          
N442     N      0.791760000000     0.991100000000     0.824100000000     0          
C443     C      0.760750000000     0.008770000000     0.810950000000     0          
C444     C      0.720280000000     0.018520000000     0.832660000000     0          
C445     C      0.713170000000     0.006590000000     0.873970000000     0          
H446     H      0.732800000000     0.996800000000     0.883200000000     0          
C447     C      0.674850000000     0.010850000000     0.898530000000     0          
C448     C      0.647800000000     0.017600000000     0.885600000000     0          
C449     C      0.656320000000     0.027340000000     0.847680000000     0          
H450     H      0.637300000000     0.032500000000     0.839700000000     0          
C451     C      0.691200000000     0.030280000000     0.819620000000     0          
O452     O      0.947310000000     0.439110000000     0.604710000000     0          
H453     H      0.929400000000     0.411400000000     0.676000000000     0          
C454     C      0.913780000000     0.461960000000     0.612460000000     0          
O455     O      0.900110000000     0.490190000000     0.584850000000     0          
N456     N      0.824100000000     0.393040000000     0.791760000000     0          
C457     C      0.810950000000     0.419530000000     0.760750000000     0          
C458     C      0.832660000000     0.428540000000     0.720280000000     0          
C459     C      0.873970000000     0.406270000000     0.713170000000     0          
H460     H      0.883200000000     0.387200000000     0.732800000000     0          
C461     C      0.898530000000     0.415770000000     0.674850000000     0          
C462     C      0.885600000000     0.449000000000     0.647800000000     0          
C463     C      0.847680000000     0.468660000000     0.656320000000     0          
H464     H      0.839700000000     0.490500000000     0.637300000000     0          
C465     C      0.819620000000     0.458900000000     0.691200000000     0          
H466     H      0.793800000000     0.472000000000     0.694600000000     0          
O467     O      0.008870000000     0.604710000000     0.439110000000     0          
O468     O      0.008450000000     0.591110000000     0.496890000000     0          
H469     H      0.009300000000     0.646100000000     0.500900000000     0          
H470     H      0.012600000000     0.705000000000     0.481000000000     0          
C471     C      0.011800000000     0.612460000000     0.461960000000     0          
N472     N      0.991100000000     0.791760000000     0.393040000000     0          
C473     C      0.008770000000     0.760750000000     0.419530000000     0          
C474     C      0.018520000000     0.720280000000     0.428540000000     0          
C475     C      0.006590000000     0.713170000000     0.406270000000     0          
H476     H      0.996800000000     0.732800000000     0.387200000000     0          
C477     C      0.010850000000     0.674850000000     0.415770000000     0          
H478     H      0.009000000000     0.668000000000     0.399600000000     0          
C479     C      0.017600000000     0.647800000000     0.449000000000     0          
C480     C      0.027340000000     0.656320000000     0.468660000000     0          
C481     C      0.030280000000     0.691200000000     0.458900000000     0          
O482     O      0.008870000000     0.439110000000     0.947310000000     0          
O483     O      0.008450000000     0.496890000000     0.903550000000     0          
H484     H      0.983200000000     0.411400000000     0.929400000000     0          
H485     H      0.009300000000     0.500900000000     0.843700000000     0          
H486     H      0.012600000000     0.481000000000     0.801400000000     0          
C487     C      0.011800000000     0.461960000000     0.913780000000     0          
N488     N      0.991100000000     0.393040000000     0.824100000000     0          
C489     C      0.008770000000     0.419530000000     0.810950000000     0          
C490     C      0.018520000000     0.428540000000     0.832660000000     0          
C491     C      0.006590000000     0.406270000000     0.873970000000     0          
H492     H      0.996800000000     0.387200000000     0.883200000000     0          
C493     C      0.010850000000     0.415770000000     0.898530000000     0          
C494     C      0.017600000000     0.449000000000     0.885600000000     0          
C495     C      0.027340000000     0.468660000000     0.847680000000     0          
C496     C      0.030280000000     0.458900000000     0.819620000000     0          
O497     O      0.947310000000     0.604710000000     0.008870000000     0          
H498     H      0.929400000000     0.676000000000     0.983200000000     0          
C499     C      0.913780000000     0.612460000000     0.011800000000     0          
O500     O      0.900110000000     0.584850000000     0.024850000000     0          
N501     N      0.824100000000     0.791760000000     0.991100000000     0          
C502     C      0.810950000000     0.760750000000     0.008770000000     0          
C503     C      0.832660000000     0.720280000000     0.018520000000     0          
C504     C      0.873970000000     0.713170000000     0.006590000000     0          
H505     H      0.883200000000     0.732800000000     0.996800000000     0          
C506     C      0.898530000000     0.674850000000     0.010850000000     0          
C507     C      0.885600000000     0.647800000000     0.017600000000     0          
C508     C      0.847680000000     0.656320000000     0.027340000000     0          
H509     H      0.839700000000     0.637300000000     0.032500000000     0          
C510     C      0.819620000000     0.691200000000     0.030280000000     0          
H511     H      0.793800000000     0.694600000000     0.039600000000     0          
O512     O      0.604710000000     0.947310000000     0.439110000000     0          
O513     O      0.591110000000     0.903550000000     0.496890000000     0          
H514     H      0.646100000000     0.843700000000     0.500900000000     0          
H515     H      0.705000000000     0.801400000000     0.481000000000     0          
C516     C      0.612460000000     0.913780000000     0.461960000000     0          
N517     N      0.791760000000     0.824100000000     0.393040000000     0          
C518     C      0.760750000000     0.810950000000     0.419530000000     0          
C519     C      0.720280000000     0.832660000000     0.428540000000     0          
C520     C      0.713170000000     0.873970000000     0.406270000000     0          
H521     H      0.732800000000     0.883200000000     0.387200000000     0          
C522     C      0.674850000000     0.898530000000     0.415770000000     0          
H523     H      0.668000000000     0.923400000000     0.399600000000     0          
C524     C      0.647800000000     0.885600000000     0.449000000000     0          
C525     C      0.656320000000     0.847680000000     0.468660000000     0          
C526     C      0.691200000000     0.819620000000     0.458900000000     0          
O527     O      0.439110000000     0.008870000000     0.604710000000     0          
O528     O      0.496890000000     0.008450000000     0.591110000000     0          
H529     H      0.500900000000     0.009300000000     0.646100000000     0          
H530     H      0.481000000000     0.012600000000     0.705000000000     0          
C531     C      0.461960000000     0.011800000000     0.612460000000     0          
N532     N      0.393040000000     0.991100000000     0.791760000000     0          
C533     C      0.419530000000     0.008770000000     0.760750000000     0          
C534     C      0.428540000000     0.018520000000     0.720280000000     0          
C535     C      0.406270000000     0.006590000000     0.713170000000     0          
H536     H      0.387200000000     0.996800000000     0.732800000000     0          
C537     C      0.415770000000     0.010850000000     0.674850000000     0          
H538     H      0.399600000000     0.009000000000     0.668000000000     0          
C539     C      0.449000000000     0.017600000000     0.647800000000     0          
C540     C      0.468660000000     0.027340000000     0.656320000000     0          
C541     C      0.458900000000     0.030280000000     0.691200000000     0          
O542     O      0.052690000000     0.991130000000     0.395290000000     0          
O543     O      0.096450000000     0.991550000000     0.408890000000     0          
H544     H      0.070600000000     0.016800000000     0.324000000000     0          
H545     H      0.156300000000     0.990700000000     0.353900000000     0          
H546     H      0.198600000000     0.987400000000     0.295000000000     0          
C547     C      0.086220000000     0.988200000000     0.387540000000     0          
N548     N      0.175900000000     0.008900000000     0.208240000000     0          
C549     C      0.189050000000     0.991230000000     0.239250000000     0          
C550     C      0.167340000000     0.981480000000     0.279720000000     0          
C551     C      0.126030000000     0.993410000000     0.286830000000     0          
H552     H      0.116800000000     0.003200000000     0.267200000000     0          
C553     C      0.101470000000     0.989150000000     0.325150000000     0          
C554     C      0.114400000000     0.982400000000     0.352200000000     0          
C555     C      0.152320000000     0.972660000000     0.343680000000     0          
C556     C      0.180380000000     0.969720000000     0.308800000000     0          
O557     O      0.991130000000     0.052690000000     0.560890000000     0          
O558     O      0.991550000000     0.096450000000     0.503110000000     0          
H559     H      0.016800000000     0.070600000000     0.588600000000     0          
C560     C      0.988200000000     0.086220000000     0.538040000000     0          
N561     N      0.008900000000     0.175900000000     0.606960000000     0          
C562     C      0.991230000000     0.189050000000     0.580470000000     0          
C563     C      0.981480000000     0.167340000000     0.571460000000     0          
C564     C      0.993410000000     0.126030000000     0.593730000000     0          
H565     H      0.003200000000     0.116800000000     0.612800000000     0          
C566     C      0.989150000000     0.101470000000     0.584230000000     0          
C567     C      0.982400000000     0.114400000000     0.551000000000     0          
C568     C      0.972660000000     0.152320000000     0.531340000000     0          
H569     H      0.967500000000     0.160300000000     0.509500000000     0          
C570     C      0.969720000000     0.180380000000     0.541100000000     0          
H571     H      0.960400000000     0.206200000000     0.528000000000     0          
O572     O      0.560890000000     0.395290000000     0.991130000000     0          
O573     O      0.503110000000     0.408890000000     0.991550000000     0          
H574     H      0.588600000000     0.324000000000     0.016800000000     0          
H575     H      0.499100000000     0.353900000000     0.990700000000     0          
C576     C      0.538040000000     0.387540000000     0.988200000000     0          
N577     N      0.606960000000     0.208240000000     0.008900000000     0          
C578     C      0.580470000000     0.239250000000     0.991230000000     0          
C579     C      0.571460000000     0.279720000000     0.981480000000     0          
C580     C      0.593730000000     0.286830000000     0.993410000000     0          
H581     H      0.612800000000     0.267200000000     0.003200000000     0          
C582     C      0.584230000000     0.325150000000     0.989150000000     0          
C583     C      0.551000000000     0.352200000000     0.982400000000     0          
C584     C      0.531340000000     0.343680000000     0.972660000000     0          
C585     C      0.541100000000     0.308800000000     0.969720000000     0          
H586     H      0.528000000000     0.305400000000     0.960400000000     0          
O587     O      0.395290000000     0.560890000000     0.052690000000     0          
O588     O      0.408890000000     0.503110000000     0.096450000000     0          
H589     H      0.353900000000     0.499100000000     0.156300000000     0          
H590     H      0.295000000000     0.519000000000     0.198600000000     0          
C591     C      0.387540000000     0.538040000000     0.086220000000     0          
N592     N      0.208240000000     0.606960000000     0.175900000000     0          
C593     C      0.239250000000     0.580470000000     0.189050000000     0          
C594     C      0.279720000000     0.571460000000     0.167340000000     0          
C595     C      0.286830000000     0.593730000000     0.126030000000     0          
H596     H      0.267200000000     0.612800000000     0.116800000000     0          
C597     C      0.325150000000     0.584230000000     0.101470000000     0          
H598     H      0.332000000000     0.600400000000     0.076600000000     0          
C599     C      0.352200000000     0.551000000000     0.114400000000     0          
C600     C      0.343680000000     0.531340000000     0.152320000000     0          
C601     C      0.308800000000     0.541100000000     0.180380000000     0          
O602     O      0.560890000000     0.052690000000     0.395290000000     0          
O603     O      0.503110000000     0.096450000000     0.408890000000     0          
H604     H      0.588600000000     0.070600000000     0.324000000000     0          
H605     H      0.499100000000     0.156300000000     0.353900000000     0          
H606     H      0.519000000000     0.198600000000     0.295000000000     0          
C607     C      0.538040000000     0.086220000000     0.387540000000     0          
N608     N      0.606960000000     0.175900000000     0.208240000000     0          
C609     C      0.580470000000     0.189050000000     0.239250000000     0          
C610     C      0.571460000000     0.167340000000     0.279720000000     0          
C611     C      0.593730000000     0.126030000000     0.286830000000     0          
H612     H      0.612800000000     0.116800000000     0.267200000000     0          
C613     C      0.584230000000     0.101470000000     0.325150000000     0          
C614     C      0.551000000000     0.114400000000     0.352200000000     0          
C615     C      0.531340000000     0.152320000000     0.343680000000     0          
C616     C      0.541100000000     0.180380000000     0.308800000000     0          
O617     O      0.395290000000     0.991130000000     0.560890000000     0          
O618     O      0.408890000000     0.991550000000     0.503110000000     0          
H619     H      0.324000000000     0.016800000000     0.588600000000     0          
C620     C      0.387540000000     0.988200000000     0.538040000000     0          
N621     N      0.208240000000     0.008900000000     0.606960000000     0          
C622     C      0.239250000000     0.991230000000     0.580470000000     0          
C623     C      0.279720000000     0.981480000000     0.571460000000     0          
C624     C      0.286830000000     0.993410000000     0.593730000000     0          
H625     H      0.267200000000     0.003200000000     0.612800000000     0          
C626     C      0.325150000000     0.989150000000     0.584230000000     0          
C627     C      0.352200000000     0.982400000000     0.551000000000     0          
C628     C      0.343680000000     0.972660000000     0.531340000000     0          
H629     H      0.362700000000     0.967500000000     0.509500000000     0          
C630     C      0.308800000000     0.969720000000     0.541100000000     0          
H631     H      0.305400000000     0.960400000000     0.528000000000     0          
O632     O      0.052690000000     0.560890000000     0.991130000000     0          
O633     O      0.096450000000     0.503110000000     0.991550000000     0          
H634     H      0.070600000000     0.588600000000     0.016800000000     0          
C635     C      0.086220000000     0.538040000000     0.988200000000     0          
N636     N      0.175900000000     0.606960000000     0.008900000000     0          
C637     C      0.189050000000     0.580470000000     0.991230000000     0          
C638     C      0.167340000000     0.571460000000     0.981480000000     0          
C639     C      0.126030000000     0.593730000000     0.993410000000     0          
H640     H      0.116800000000     0.612800000000     0.003200000000     0          
C641     C      0.101470000000     0.584230000000     0.989150000000     0          
C642     C      0.114400000000     0.551000000000     0.982400000000     0          
C643     C      0.152320000000     0.531340000000     0.972660000000     0          
H644     H      0.160300000000     0.509500000000     0.967500000000     0          
C645     C      0.180380000000     0.541100000000     0.969720000000     0          
H646     H      0.206200000000     0.528000000000     0.960400000000     0          
O647     O      0.991130000000     0.395290000000     0.052690000000     0          
H648     H      0.990700000000     0.353900000000     0.156300000000     0          
H649     H      0.987400000000     0.295000000000     0.198600000000     0          
C650     C      0.988200000000     0.387540000000     0.086220000000     0          
O651     O      0.975150000000     0.415150000000     0.099890000000     0          
N652     N      0.008900000000     0.208240000000     0.175900000000     0          
C653     C      0.991230000000     0.239250000000     0.189050000000     0          
C654     C      0.981480000000     0.279720000000     0.167340000000     0          
C655     C      0.993410000000     0.286830000000     0.126030000000     0          
H656     H      0.003200000000     0.267200000000     0.116800000000     0          
C657     C      0.989150000000     0.325150000000     0.101470000000     0          
H658     H      0.991000000000     0.332000000000     0.076600000000     0          
C659     C      0.982400000000     0.352200000000     0.114400000000     0          
C660     C      0.972660000000     0.343680000000     0.152320000000     0          
C661     C      0.969720000000     0.308800000000     0.180380000000     0          
O662     O      0.991130000000     0.560890000000     0.395290000000     0          
O663     O      0.991550000000     0.503110000000     0.408890000000     0          
H664     H      0.016800000000     0.588600000000     0.324000000000     0          
H665     H      0.990700000000     0.499100000000     0.353900000000     0          
C666     C      0.988200000000     0.538040000000     0.387540000000     0          
N667     N      0.008900000000     0.606960000000     0.208240000000     0          
C668     C      0.991230000000     0.580470000000     0.239250000000     0          
C669     C      0.981480000000     0.571460000000     0.279720000000     0          
C670     C      0.993410000000     0.593730000000     0.286830000000     0          
H671     H      0.003200000000     0.612800000000     0.267200000000     0          
C672     C      0.989150000000     0.584230000000     0.325150000000     0          
C673     C      0.982400000000     0.551000000000     0.352200000000     0          
C674     C      0.972660000000     0.531340000000     0.343680000000     0          
C675     C      0.969720000000     0.541100000000     0.308800000000     0          
H676     H      0.960400000000     0.528000000000     0.305400000000     0          
O677     O      0.052690000000     0.395290000000     0.560890000000     0          
O678     O      0.096450000000     0.408890000000     0.503110000000     0          
H679     H      0.070600000000     0.324000000000     0.588600000000     0          
C680     C      0.086220000000     0.387540000000     0.538040000000     0          
N681     N      0.175900000000     0.208240000000     0.606960000000     0          
C682     C      0.189050000000     0.239250000000     0.580470000000     0          
C683     C      0.167340000000     0.279720000000     0.571460000000     0          
C684     C      0.126030000000     0.286830000000     0.593730000000     0          
H685     H      0.116800000000     0.267200000000     0.612800000000     0          
C686     C      0.101470000000     0.325150000000     0.584230000000     0          
C687     C      0.114400000000     0.352200000000     0.551000000000     0          
C688     C      0.152320000000     0.343680000000     0.531340000000     0          
H689     H      0.160300000000     0.362700000000     0.509500000000     0          
C690     C      0.180380000000     0.308800000000     0.541100000000     0          
H691     H      0.206200000000     0.305400000000     0.528000000000     0          
O692     O      0.395290000000     0.052690000000     0.991130000000     0          
O693     O      0.408890000000     0.096450000000     0.991550000000     0          
H694     H      0.353900000000     0.156300000000     0.990700000000     0          
H695     H      0.295000000000     0.198600000000     0.987400000000     0          
C696     C      0.387540000000     0.086220000000     0.988200000000     0          
N697     N      0.208240000000     0.175900000000     0.008900000000     0          
C698     C      0.239250000000     0.189050000000     0.991230000000     0          
C699     C      0.279720000000     0.167340000000     0.981480000000     0          
C700     C      0.286830000000     0.126030000000     0.993410000000     0          
H701     H      0.267200000000     0.116800000000     0.003200000000     0          
C702     C      0.325150000000     0.101470000000     0.989150000000     0          
H703     H      0.332000000000     0.076600000000     0.991000000000     0          
C704     C      0.352200000000     0.114400000000     0.982400000000     0          
C705     C      0.343680000000     0.152320000000     0.972660000000     0          
C706     C      0.308800000000     0.180380000000     0.969720000000     0          
O707     O      0.560890000000     0.991130000000     0.052690000000     0          
O708     O      0.503110000000     0.991550000000     0.096450000000     0          
H709     H      0.499100000000     0.990700000000     0.156300000000     0          
H710     H      0.519000000000     0.987400000000     0.198600000000     0          
C711     C      0.538040000000     0.988200000000     0.086220000000     0          
N712     N      0.606960000000     0.008900000000     0.175900000000     0          
C713     C      0.580470000000     0.991230000000     0.189050000000     0          
C714     C      0.571460000000     0.981480000000     0.167340000000     0          
C715     C      0.593730000000     0.993410000000     0.126030000000     0          
H716     H      0.612800000000     0.003200000000     0.116800000000     0          
C717     C      0.584230000000     0.989150000000     0.101470000000     0          
H718     H      0.600400000000     0.991000000000     0.076600000000     0          
C719     C      0.551000000000     0.982400000000     0.114400000000     0          
C720     C      0.531340000000     0.972660000000     0.152320000000     0          
C721     C      0.541100000000     0.969720000000     0.180380000000     0          
Zr722    Zr     0.069980000000     0.987940000000     0.471040000000     0          
Zr723    Zr     0.987940000000     0.069980000000     0.471040000000     0          
Zr724    Zr     0.471040000000     0.471040000000     0.069980000000     0          
Zr725    Zr     0.471040000000     0.471040000000     0.987940000000     0          
Zr726    Zr     0.471040000000     0.069980000000     0.987940000000     0          
Zr727    Zr     0.471040000000     0.987940000000     0.069980000000     0          
Zr728    Zr     0.069980000000     0.471040000000     0.471040000000     0          
Zr729    Zr     0.987940000000     0.471040000000     0.471040000000     0          
Zr730    Zr     0.987940000000     0.471040000000     0.069980000000     0          
Zr731    Zr     0.069980000000     0.471040000000     0.987940000000     0          
Zr732    Zr     0.471040000000     0.069980000000     0.471040000000     0          
Zr733    Zr     0.471040000000     0.987940000000     0.471040000000     0          
Zr734    Zr     0.930020000000     0.012060000000     0.528960000000     0          
Zr735    Zr     0.012060000000     0.930020000000     0.528960000000     0          
Zr736    Zr     0.528960000000     0.528960000000     0.012060000000     0          
Zr737    Zr     0.528960000000     0.528960000000     0.930020000000     0          
Zr738    Zr     0.528960000000     0.930020000000     0.528960000000     0          
Zr739    Zr     0.528960000000     0.012060000000     0.528960000000     0          
Zr740    Zr     0.930020000000     0.528960000000     0.012060000000     0          
Zr741    Zr     0.012060000000     0.528960000000     0.930020000000     0          
Zr742    Zr     0.012060000000     0.528960000000     0.528960000000     0          
Zr743    Zr     0.930020000000     0.528960000000     0.528960000000     0          
Zr744    Zr     0.528960000000     0.930020000000     0.012060000000     0          
Zr745    Zr     0.528960000000     0.012060000000     0.930020000000     0          
Zr746    Zr     0.557060000000     0.442940000000     0.000000000000     0          
Zr747    Zr     0.442940000000     0.557060000000     0.000000000000     0          
Zr748    Zr     0.000000000000     0.557060000000     0.442940000000     0          
Zr749    Zr     0.000000000000     0.442940000000     0.557060000000     0          
Zr750    Zr     0.442940000000     0.000000000000     0.557060000000     0          
Zr751    Zr     0.557060000000     0.000000000000     0.442940000000     0          
O752     O      0.040860000000     0.959140000000     0.527760000000     0          
O753     O      0.959140000000     0.040860000000     0.472240000000     0          
O754     O      0.527760000000     0.472240000000     0.040860000000     0          
O755     O      0.472240000000     0.527760000000     0.959140000000     0          
O756     O      0.527760000000     0.040860000000     0.959140000000     0          
O757     O      0.472240000000     0.959140000000     0.040860000000     0          
O758     O      0.040860000000     0.527760000000     0.472240000000     0          
O759     O      0.959140000000     0.472240000000     0.527760000000     0          
O760     O      0.959140000000     0.527760000000     0.040860000000     0          
O761     O      0.040860000000     0.472240000000     0.959140000000     0          
O762     O      0.472240000000     0.040860000000     0.527760000000     0          
O763     O      0.527760000000     0.959140000000     0.472240000000     0          
O764     O      0.959140000000     0.040860000000     0.527760000000     0          
O765     O      0.040860000000     0.959140000000     0.472240000000     0          
O766     O      0.472240000000     0.527760000000     0.040860000000     0          
O767     O      0.527760000000     0.472240000000     0.959140000000     0          
O768     O      0.472240000000     0.959140000000     0.527760000000     0          
O769     O      0.527760000000     0.040860000000     0.472240000000     0          
O770     O      0.959140000000     0.472240000000     0.040860000000     0          
O771     O      0.040860000000     0.527760000000     0.959140000000     0          
O772     O      0.040860000000     0.472240000000     0.527760000000     0          
O773     O      0.959140000000     0.527760000000     0.472240000000     0          
O774     O      0.527760000000     0.959140000000     0.040860000000     0          
O775     O      0.472240000000     0.040860000000     0.959140000000     0          
O776     O      0.498930000000     0.443890000000     0.028590000000     0          
O777     O      0.443890000000     0.498930000000     0.028590000000     0          
O778     O      0.028590000000     0.498930000000     0.443890000000     0          
O779     O      0.028590000000     0.443890000000     0.498930000000     0          
O780     O      0.443890000000     0.028590000000     0.498930000000     0          
O781     O      0.498930000000     0.028590000000     0.443890000000     0          
O782     O      0.501070000000     0.556110000000     0.971410000000     0          
O783     O      0.556110000000     0.501070000000     0.971410000000     0          
O784     O      0.501070000000     0.971410000000     0.556110000000     0          
O785     O      0.556110000000     0.971410000000     0.501070000000     0          
O786     O      0.971410000000     0.501070000000     0.556110000000     0          
O787     O      0.971410000000     0.556110000000     0.501070000000     0          
N788     N      0.228100000000     0.983140000000     0.560660000000     0          
N789     N      0.983140000000     0.228100000000     0.228100000000     0          
N790     N      0.560660000000     0.228100000000     0.228100000000     0          
N791     N      0.228100000000     0.560660000000     0.983140000000     0          
N792     N      0.560660000000     0.228100000000     0.983140000000     0          
N793     N      0.228100000000     0.983140000000     0.228100000000     0          
N794     N      0.228100000000     0.560660000000     0.228100000000     0          
N795     N      0.983140000000     0.228100000000     0.560660000000     0          
N796     N      0.983140000000     0.560660000000     0.228100000000     0          
N797     N      0.228100000000     0.228100000000     0.983140000000     0          
N798     N      0.228100000000     0.228100000000     0.560660000000     0          
N799     N      0.560660000000     0.983140000000     0.228100000000     0          
N800     N      0.771900000000     0.016860000000     0.771900000000     0          
N801     N      0.016860000000     0.771900000000     0.439340000000     0          
N802     N      0.439340000000     0.771900000000     0.016860000000     0          
N803     N      0.771900000000     0.439340000000     0.771900000000     0          
N804     N      0.439340000000     0.771900000000     0.771900000000     0          
N805     N      0.771900000000     0.016860000000     0.439340000000     0          
N806     N      0.771900000000     0.439340000000     0.016860000000     0          
N807     N      0.016860000000     0.771900000000     0.771900000000     0          
N808     N      0.016860000000     0.439340000000     0.771900000000     0          
N809     N      0.771900000000     0.771900000000     0.439340000000     0          
N810     N      0.771900000000     0.771900000000     0.016860000000     0          
N811     N      0.439340000000     0.016860000000     0.771900000000     0          
O812     O      0.436660000000     0.019180000000     0.107500000000     0          
O813     O      0.433520000000     0.036300000000     0.096660000000     0          
O814     O      0.019180000000     0.436660000000     0.107500000000     0          
O815     O      0.036300000000     0.433520000000     0.096660000000     0          
O816     O      0.980820000000     0.563340000000     0.892500000000     0          
O817     O      0.963700000000     0.566480000000     0.903340000000     0          
O818     O      0.566480000000     0.963700000000     0.903340000000     0          
Zr819    Zr     0.000000000000     0.000000000000     0.557060000000     0          
O820     O      0.028590000000     0.028590000000     0.498930000000     0          
Zr821    Zr     0.000000000000     0.000000000000     0.442940000000     0          
O822     O      0.028590000000     0.028590000000     0.443890000000     0          
Zr823    Zr     0.557060000000     0.000000000000     0.000000000000     0          
O824     O      0.498930000000     0.028590000000     0.028590000000     0          
Zr825    Zr     0.442940000000     0.000000000000     0.000000000000     0          
O826     O      0.443890000000     0.028590000000     0.028590000000     0          
Zr827    Zr     0.000000000000     0.557060000000     0.000000000000     0          
O828     O      0.028590000000     0.498930000000     0.028590000000     0          
Zr829    Zr     0.000000000000     0.442940000000     0.000000000000     0          
O830     O      0.028590000000     0.443890000000     0.028590000000     0          
O831     O      0.971410000000     0.971410000000     0.556110000000     0          
O832     O      0.971410000000     0.971410000000     0.501070000000     0          
O833     O      0.971410000000     0.501070000000     0.971410000000     0          
O834     O      0.971410000000     0.556110000000     0.971410000000     0          
O835     O      0.556110000000     0.971410000000     0.971410000000     0          
O836     O      0.501070000000     0.971410000000     0.971410000000     0          
H837     H      0.005970000000     0.366770000000     0.838000000000     0          
H838     H      0.838000000000     0.366770000000     0.005970000000     0          
H839     H      0.233450000000     0.532990000000     0.000110000000     0          
H840     H      0.000110000000     0.532990000000     0.233450000000     0          
H841     H      0.633230000000     0.210750000000     0.994030000000     0          
H842     H      0.994030000000     0.210750000000     0.633230000000     0          
H843     H      0.366770000000     0.005970000000     0.838000000000     0          
H844     H      0.838000000000     0.005970000000     0.366770000000     0          
H845     H      0.210750000000     0.162000000000     0.994030000000     0          
H846     H      0.994030000000     0.162000000000     0.210750000000     0          
H847     H      0.210750000000     0.162000000000     0.633230000000     0          
H848     H      0.633230000000     0.162000000000     0.210750000000     0          
H849     H      0.999890000000     0.766550000000     0.766550000000     0          
H850     H      0.766550000000     0.766550000000     0.999890000000     0          
H851     H      0.233450000000     0.000110000000     0.532990000000     0          
H852     H      0.532990000000     0.000110000000     0.233450000000     0          
H853     H      0.999890000000     0.766550000000     0.467010000000     0          
H854     H      0.467010000000     0.766550000000     0.999890000000     0          
H855     H      0.366770000000     0.789250000000     0.838000000000     0          
H856     H      0.838000000000     0.789250000000     0.366770000000     0          
H857     H      0.210750000000     0.994030000000     0.162000000000     0          
H858     H      0.210750000000     0.633230000000     0.162000000000     0          
H859     H      0.766550000000     0.999890000000     0.766550000000     0          
H860     H      0.838000000000     0.366770000000     0.789250000000     0          
H861     H      0.696610000000     0.474160000000     0.041460000000     0          
H862     H      0.634000000000     0.495690000000     0.033960000000     0          


