data_ZOPLOH

_audit_creation_method RASPA-1.0
_audit_creation_date 2020-11-2
_audit_author_name 'Rocio Bueno-Perez'

_cell_length_a    32.619
_cell_length_b    32.619
_cell_length_c    32.619
_cell_angle_alpha 90
_cell_angle_beta  90
_cell_angle_gamma 90
_cell_volume      34706.6

_symmetry_cell_setting          triclinic
_symmetry_space_group_name_Hall 'P 1'
_symmetry_space_group_name_H-M  'P 1'
_symmetry_Int_Tables_number     1

_symmetry_equiv_pos_as_xyz 'x,y,z'

loop_
_atom_site_label
_atom_site_type_symbol
_atom_site_fract_x
_atom_site_fract_y
_atom_site_fract_z
_atom_site_charge
H9       H      0.586200000000     0.731910000000     0.309770000000     0          
H13      H      0.430280000000     0.306200000000     0.306200000000     0          
H15      H      0.930280000000     0.306200000000     0.806200000000     0          
H16      H      0.930280000000     0.806200000000     0.306200000000     0          
H18      H      0.684260000000     0.922460000000     0.219730000000     0          
H19      H      0.184260000000     0.422460000000     0.219730000000     0          
H21      H      0.737870000000     0.594860000000     0.297590000000     0          
H24      H      0.237870000000     0.094860000000     0.297590000000     0          
H25      H      0.270890000000     0.602680000000     0.727540000000     0          
H28      H      0.770890000000     0.102680000000     0.727540000000     0          
H30      H      0.306980000000     0.930270000000     0.805410000000     0          
H31      H      0.806980000000     0.430270000000     0.805410000000     0          
H70      H      0.602690000000     0.228340000000     0.228340000000     0          
H71      H      0.102690000000     0.728340000000     0.228340000000     0          
H72      H      0.102690000000     0.228340000000     0.728340000000     0          
H78      H      0.413800000000     0.809770000000     0.231910000000     0          
H82      H      0.729110000000     0.227540000000     0.102680000000     0          
H84      H      0.229110000000     0.227540000000     0.602680000000     0          
H85      H      0.693020000000     0.305410000000     0.430270000000     0          
H87      H      0.193020000000     0.305410000000     0.930270000000     0          
H89      H      0.315740000000     0.719730000000     0.422460000000     0          
H91      H      0.815740000000     0.719730000000     0.922460000000     0          
H94      H      0.262130000000     0.797590000000     0.094860000000     0          
H96      H      0.762130000000     0.797590000000     0.594860000000     0          
H98      H      0.569720000000     0.806200000000     0.806200000000     0          
H102     H      0.413800000000     0.231910000000     0.809770000000     0          
H103     H      0.913800000000     0.731910000000     0.809770000000     0          
H104     H      0.913800000000     0.231910000000     0.309770000000     0          
H113     H      0.262130000000     0.594860000000     0.297590000000     0          
H116     H      0.762130000000     0.094860000000     0.297590000000     0          
H118     H      0.315740000000     0.922460000000     0.219730000000     0          
H119     H      0.815740000000     0.422460000000     0.219730000000     0          
H122     H      0.693020000000     0.930270000000     0.805410000000     0          
H123     H      0.193020000000     0.430270000000     0.805410000000     0          
H125     H      0.729110000000     0.602680000000     0.727540000000     0          
H128     H      0.229110000000     0.102680000000     0.727540000000     0          
H161     H      0.586200000000     0.309770000000     0.731910000000     0          
H163     H      0.086200000000     0.309770000000     0.231910000000     0          
H164     H      0.086200000000     0.809770000000     0.731910000000     0          
H169     H      0.397310000000     0.728340000000     0.728340000000     0          
H177     H      0.306980000000     0.305410000000     0.430270000000     0          
H179     H      0.806980000000     0.305410000000     0.930270000000     0          
H182     H      0.270890000000     0.227540000000     0.102680000000     0          
H184     H      0.770890000000     0.227540000000     0.602680000000     0          
H186     H      0.737870000000     0.797590000000     0.094860000000     0          
H188     H      0.237870000000     0.797590000000     0.594860000000     0          
H189     H      0.684260000000     0.719730000000     0.422460000000     0          
H191     H      0.184260000000     0.719730000000     0.922460000000     0          
Zr193    Zr     0.500000000000     0.575460000000     0.500000000000     0          
Zr194    Zr     0.500000000000     0.075460000000     0.000000000000     0          
Zr195    Zr     0.000000000000     0.575460000000     0.000000000000     0          
Zr196    Zr     0.000000000000     0.075460000000     0.500000000000     0          
Zr197    Zr     0.500000000000     0.424540000000     0.500000000000     0          
Zr198    Zr     0.500000000000     0.924540000000     0.000000000000     0          
Zr199    Zr     0.000000000000     0.424540000000     0.000000000000     0          
Zr200    Zr     0.000000000000     0.924540000000     0.500000000000     0          
Zr201    Zr     0.500000000000     0.500000000000     0.575460000000     0          
Zr202    Zr     0.500000000000     0.000000000000     0.075460000000     0          
Zr203    Zr     0.000000000000     0.500000000000     0.075460000000     0          
Zr204    Zr     0.000000000000     0.000000000000     0.575460000000     0          
Zr205    Zr     0.500000000000     0.500000000000     0.424540000000     0          
Zr206    Zr     0.500000000000     0.000000000000     0.924540000000     0          
Zr207    Zr     0.000000000000     0.500000000000     0.924540000000     0          
Zr208    Zr     0.000000000000     0.000000000000     0.424540000000     0          
Zr209    Zr     0.575460000000     0.500000000000     0.500000000000     0          
Zr210    Zr     0.575460000000     0.000000000000     0.000000000000     0          
Zr211    Zr     0.075460000000     0.500000000000     0.000000000000     0          
Zr212    Zr     0.075460000000     0.000000000000     0.500000000000     0          
Zr213    Zr     0.424540000000     0.500000000000     0.500000000000     0          
Zr214    Zr     0.424540000000     0.000000000000     0.000000000000     0          
Zr215    Zr     0.924540000000     0.500000000000     0.000000000000     0          
Zr216    Zr     0.924540000000     0.000000000000     0.500000000000     0          
O217     O      0.500000000000     0.609200000000     0.558400000000     0          
C218     C      0.500000000000     0.616300000000     0.668500000000     0          
H219     H      0.500000000000     0.582620000000     0.677820000000     0          
C220     C      0.500000000000     0.647300000000     0.699000000000     0          
H221     H      0.500000000000     0.638530000000     0.732830000000     0          
O222     O      0.500000000000     0.109200000000     0.058400000000     0          
C223     C      0.500000000000     0.116300000000     0.168500000000     0          
H224     H      0.500000000000     0.082620000000     0.177820000000     0          
C225     C      0.500000000000     0.147300000000     0.199000000000     0          
H226     H      0.500000000000     0.138530000000     0.232830000000     0          
O227     O      0.000000000000     0.609200000000     0.058400000000     0          
C228     C      0.000000000000     0.616300000000     0.168500000000     0          
H229     H      0.000000000000     0.582620000000     0.177820000000     0          
C230     C      0.000000000000     0.647300000000     0.199000000000     0          
H231     H      0.000000000000     0.638530000000     0.232830000000     0          
O232     O      0.000000000000     0.109200000000     0.558400000000     0          
C233     C      0.000000000000     0.116300000000     0.668500000000     0          
H234     H      0.000000000000     0.082620000000     0.677820000000     0          
C235     C      0.000000000000     0.147300000000     0.699000000000     0          
H236     H      0.000000000000     0.138530000000     0.732830000000     0          
O237     O      0.500000000000     0.390800000000     0.558400000000     0          
C238     C      0.500000000000     0.383700000000     0.668500000000     0          
H239     H      0.500000000000     0.417380000000     0.677820000000     0          
C240     C      0.500000000000     0.352700000000     0.699000000000     0          
H241     H      0.500000000000     0.361470000000     0.732830000000     0          
O242     O      0.500000000000     0.890800000000     0.058400000000     0          
C243     C      0.500000000000     0.883700000000     0.168500000000     0          
H244     H      0.500000000000     0.917380000000     0.177820000000     0          
C245     C      0.500000000000     0.852700000000     0.199000000000     0          
H246     H      0.500000000000     0.861470000000     0.232830000000     0          
O247     O      0.000000000000     0.390800000000     0.058400000000     0          
C248     C      0.000000000000     0.383700000000     0.168500000000     0          
H249     H      0.000000000000     0.417380000000     0.177820000000     0          
C250     C      0.000000000000     0.352700000000     0.199000000000     0          
H251     H      0.000000000000     0.361470000000     0.232830000000     0          
O252     O      0.000000000000     0.890800000000     0.558400000000     0          
C253     C      0.000000000000     0.883700000000     0.668500000000     0          
H254     H      0.000000000000     0.917380000000     0.677820000000     0          
C255     C      0.000000000000     0.852700000000     0.699000000000     0          
H256     H      0.000000000000     0.861470000000     0.732830000000     0          
O257     O      0.500000000000     0.609200000000     0.441600000000     0          
C258     C      0.500000000000     0.616300000000     0.331500000000     0          
H259     H      0.500000000000     0.582620000000     0.322180000000     0          
C260     C      0.500000000000     0.647300000000     0.301000000000     0          
H261     H      0.500000000000     0.638530000000     0.267170000000     0          
O262     O      0.500000000000     0.109200000000     0.941600000000     0          
C263     C      0.500000000000     0.116300000000     0.831500000000     0          
H264     H      0.500000000000     0.082620000000     0.822180000000     0          
C265     C      0.500000000000     0.147300000000     0.801000000000     0          
H266     H      0.500000000000     0.138530000000     0.767170000000     0          
O267     O      0.000000000000     0.609200000000     0.941600000000     0          
C268     C      0.000000000000     0.616300000000     0.831500000000     0          
H269     H      0.000000000000     0.582620000000     0.822180000000     0          
C270     C      0.000000000000     0.647300000000     0.801000000000     0          
H271     H      0.000000000000     0.638530000000     0.767170000000     0          
O272     O      0.000000000000     0.109200000000     0.441600000000     0          
C273     C      0.000000000000     0.116300000000     0.331500000000     0          
H274     H      0.000000000000     0.082620000000     0.322180000000     0          
C275     C      0.000000000000     0.147300000000     0.301000000000     0          
H276     H      0.000000000000     0.138530000000     0.267170000000     0          
O277     O      0.500000000000     0.390800000000     0.441600000000     0          
C278     C      0.500000000000     0.383700000000     0.331500000000     0          
H279     H      0.500000000000     0.417380000000     0.322180000000     0          
C280     C      0.500000000000     0.352700000000     0.301000000000     0          
H281     H      0.500000000000     0.361470000000     0.267170000000     0          
O282     O      0.500000000000     0.890800000000     0.941600000000     0          
C283     C      0.500000000000     0.883700000000     0.831500000000     0          
H284     H      0.500000000000     0.917380000000     0.822180000000     0          
C285     C      0.500000000000     0.852700000000     0.801000000000     0          
H286     H      0.500000000000     0.861470000000     0.767170000000     0          
O287     O      0.000000000000     0.390800000000     0.941600000000     0          
C288     C      0.000000000000     0.383700000000     0.831500000000     0          
H289     H      0.000000000000     0.417380000000     0.822180000000     0          
C290     C      0.000000000000     0.352700000000     0.801000000000     0          
H291     H      0.000000000000     0.361470000000     0.767170000000     0          
O292     O      0.000000000000     0.890800000000     0.441600000000     0          
C293     C      0.000000000000     0.883700000000     0.331500000000     0          
H294     H      0.000000000000     0.917380000000     0.322180000000     0          
C295     C      0.000000000000     0.852700000000     0.301000000000     0          
H296     H      0.000000000000     0.861470000000     0.267170000000     0          
O297     O      0.558400000000     0.500000000000     0.609200000000     0          
C298     C      0.668500000000     0.500000000000     0.616300000000     0          
H299     H      0.677820000000     0.500000000000     0.582620000000     0          
C300     C      0.699000000000     0.500000000000     0.647300000000     0          
H301     H      0.732830000000     0.500000000000     0.638530000000     0          
O302     O      0.558400000000     0.000000000000     0.109200000000     0          
C303     C      0.668500000000     0.000000000000     0.116300000000     0          
H304     H      0.677820000000     0.000000000000     0.082620000000     0          
C305     C      0.699000000000     0.000000000000     0.147300000000     0          
H306     H      0.732830000000     0.000000000000     0.138530000000     0          
O307     O      0.058400000000     0.500000000000     0.109200000000     0          
C308     C      0.168500000000     0.500000000000     0.116300000000     0          
H309     H      0.177820000000     0.500000000000     0.082620000000     0          
C310     C      0.199000000000     0.500000000000     0.147300000000     0          
H311     H      0.232830000000     0.500000000000     0.138530000000     0          
O312     O      0.058400000000     0.000000000000     0.609200000000     0          
C313     C      0.168500000000     0.000000000000     0.616300000000     0          
H314     H      0.177820000000     0.000000000000     0.582620000000     0          
C315     C      0.199000000000     0.000000000000     0.647300000000     0          
H316     H      0.232830000000     0.000000000000     0.638530000000     0          
O317     O      0.558400000000     0.500000000000     0.390800000000     0          
C318     C      0.668500000000     0.500000000000     0.383700000000     0          
H319     H      0.677820000000     0.500000000000     0.417380000000     0          
C320     C      0.699000000000     0.500000000000     0.352700000000     0          
H321     H      0.732830000000     0.500000000000     0.361470000000     0          
O322     O      0.558400000000     0.000000000000     0.890800000000     0          
C323     C      0.668500000000     0.000000000000     0.883700000000     0          
H324     H      0.677820000000     0.000000000000     0.917380000000     0          
C325     C      0.699000000000     0.000000000000     0.852700000000     0          
H326     H      0.732830000000     0.000000000000     0.861470000000     0          
O327     O      0.058400000000     0.500000000000     0.890800000000     0          
C328     C      0.168500000000     0.500000000000     0.883700000000     0          
H329     H      0.177820000000     0.500000000000     0.917380000000     0          
C330     C      0.199000000000     0.500000000000     0.852700000000     0          
H331     H      0.232830000000     0.500000000000     0.861470000000     0          
O332     O      0.058400000000     0.000000000000     0.390800000000     0          
C333     C      0.168500000000     0.000000000000     0.383700000000     0          
H334     H      0.177820000000     0.000000000000     0.417380000000     0          
C335     C      0.199000000000     0.000000000000     0.352700000000     0          
H336     H      0.232830000000     0.000000000000     0.361470000000     0          
O337     O      0.441600000000     0.500000000000     0.609200000000     0          
C338     C      0.331500000000     0.500000000000     0.616300000000     0          
H339     H      0.322180000000     0.500000000000     0.582620000000     0          
C340     C      0.301000000000     0.500000000000     0.647300000000     0          
H341     H      0.267170000000     0.500000000000     0.638530000000     0          
O342     O      0.441600000000     0.000000000000     0.109200000000     0          
C343     C      0.331500000000     0.000000000000     0.116300000000     0          
H344     H      0.322180000000     0.000000000000     0.082620000000     0          
C345     C      0.301000000000     0.000000000000     0.147300000000     0          
H346     H      0.267170000000     0.000000000000     0.138530000000     0          
O347     O      0.941600000000     0.500000000000     0.109200000000     0          
C348     C      0.831500000000     0.500000000000     0.116300000000     0          
H349     H      0.822180000000     0.500000000000     0.082620000000     0          
C350     C      0.801000000000     0.500000000000     0.147300000000     0          
H351     H      0.767170000000     0.500000000000     0.138530000000     0          
O352     O      0.941600000000     0.000000000000     0.609200000000     0          
C353     C      0.831500000000     0.000000000000     0.616300000000     0          
H354     H      0.822180000000     0.000000000000     0.582620000000     0          
C355     C      0.801000000000     0.000000000000     0.647300000000     0          
H356     H      0.767170000000     0.000000000000     0.638530000000     0          
O357     O      0.441600000000     0.500000000000     0.390800000000     0          
C358     C      0.331500000000     0.500000000000     0.383700000000     0          
H359     H      0.322180000000     0.500000000000     0.417380000000     0          
C360     C      0.301000000000     0.500000000000     0.352700000000     0          
H361     H      0.267170000000     0.500000000000     0.361470000000     0          
O362     O      0.441600000000     0.000000000000     0.890800000000     0          
C363     C      0.331500000000     0.000000000000     0.883700000000     0          
H364     H      0.322180000000     0.000000000000     0.917380000000     0          
C365     C      0.301000000000     0.000000000000     0.852700000000     0          
H366     H      0.267170000000     0.000000000000     0.861470000000     0          
O367     O      0.941600000000     0.500000000000     0.890800000000     0          
C368     C      0.831500000000     0.500000000000     0.883700000000     0          
H369     H      0.822180000000     0.500000000000     0.917380000000     0          
C370     C      0.801000000000     0.500000000000     0.852700000000     0          
H371     H      0.767170000000     0.500000000000     0.861470000000     0          
O372     O      0.941600000000     0.000000000000     0.390800000000     0          
C373     C      0.831500000000     0.000000000000     0.383700000000     0          
H374     H      0.822180000000     0.000000000000     0.417380000000     0          
C375     C      0.801000000000     0.000000000000     0.352700000000     0          
H376     H      0.767170000000     0.000000000000     0.361470000000     0          
O377     O      0.609200000000     0.558400000000     0.500000000000     0          
C378     C      0.616300000000     0.668500000000     0.500000000000     0          
H379     H      0.582620000000     0.677820000000     0.500000000000     0          
C380     C      0.647300000000     0.699000000000     0.500000000000     0          
H381     H      0.638530000000     0.732830000000     0.500000000000     0          
O382     O      0.609200000000     0.058400000000     0.000000000000     0          
C383     C      0.616300000000     0.168500000000     0.000000000000     0          
H384     H      0.582620000000     0.177820000000     0.000000000000     0          
C385     C      0.647300000000     0.199000000000     0.000000000000     0          
H386     H      0.638530000000     0.232830000000     0.000000000000     0          
O387     O      0.109200000000     0.558400000000     0.000000000000     0          
C388     C      0.116300000000     0.668500000000     0.000000000000     0          
H389     H      0.082620000000     0.677820000000     0.000000000000     0          
C390     C      0.147300000000     0.699000000000     0.000000000000     0          
H391     H      0.138530000000     0.732830000000     0.000000000000     0          
O392     O      0.109200000000     0.058400000000     0.500000000000     0          
C393     C      0.116300000000     0.168500000000     0.500000000000     0          
H394     H      0.082620000000     0.177820000000     0.500000000000     0          
C395     C      0.147300000000     0.199000000000     0.500000000000     0          
H396     H      0.138530000000     0.232830000000     0.500000000000     0          
O397     O      0.390800000000     0.558400000000     0.500000000000     0          
C398     C      0.383700000000     0.668500000000     0.500000000000     0          
H399     H      0.417380000000     0.677820000000     0.500000000000     0          
C400     C      0.352700000000     0.699000000000     0.500000000000     0          
H401     H      0.361470000000     0.732830000000     0.500000000000     0          
O402     O      0.390800000000     0.058400000000     0.000000000000     0          
C403     C      0.383700000000     0.168500000000     0.000000000000     0          
H404     H      0.417380000000     0.177820000000     0.000000000000     0          
C405     C      0.352700000000     0.199000000000     0.000000000000     0          
H406     H      0.361470000000     0.232830000000     0.000000000000     0          
O407     O      0.890800000000     0.558400000000     0.000000000000     0          
C408     C      0.883700000000     0.668500000000     0.000000000000     0          
H409     H      0.917380000000     0.677820000000     0.000000000000     0          
C410     C      0.852700000000     0.699000000000     0.000000000000     0          
H411     H      0.861470000000     0.732830000000     0.000000000000     0          
O412     O      0.890800000000     0.058400000000     0.500000000000     0          
C413     C      0.883700000000     0.168500000000     0.500000000000     0          
H414     H      0.917380000000     0.177820000000     0.500000000000     0          
C415     C      0.852700000000     0.199000000000     0.500000000000     0          
H416     H      0.861470000000     0.232830000000     0.500000000000     0          
O417     O      0.609200000000     0.441600000000     0.500000000000     0          
C418     C      0.616300000000     0.331500000000     0.500000000000     0          
H419     H      0.582620000000     0.322180000000     0.500000000000     0          
C420     C      0.647300000000     0.301000000000     0.500000000000     0          
H421     H      0.638530000000     0.267170000000     0.500000000000     0          
O422     O      0.609200000000     0.941600000000     0.000000000000     0          
C423     C      0.616300000000     0.831500000000     0.000000000000     0          
H424     H      0.582620000000     0.822180000000     0.000000000000     0          
C425     C      0.647300000000     0.801000000000     0.000000000000     0          
H426     H      0.638530000000     0.767170000000     0.000000000000     0          
O427     O      0.109200000000     0.441600000000     0.000000000000     0          
C428     C      0.116300000000     0.331500000000     0.000000000000     0          
H429     H      0.082620000000     0.322180000000     0.000000000000     0          
C430     C      0.147300000000     0.301000000000     0.000000000000     0          
H431     H      0.138530000000     0.267170000000     0.000000000000     0          
O432     O      0.109200000000     0.941600000000     0.500000000000     0          
C433     C      0.116300000000     0.831500000000     0.500000000000     0          
H434     H      0.082620000000     0.822180000000     0.500000000000     0          
C435     C      0.147300000000     0.801000000000     0.500000000000     0          
H436     H      0.138530000000     0.767170000000     0.500000000000     0          
O437     O      0.390800000000     0.441600000000     0.500000000000     0          
C438     C      0.383700000000     0.331500000000     0.500000000000     0          
H439     H      0.417380000000     0.322180000000     0.500000000000     0          
C440     C      0.352700000000     0.301000000000     0.500000000000     0          
H441     H      0.361470000000     0.267170000000     0.500000000000     0          
O442     O      0.390800000000     0.941600000000     0.000000000000     0          
C443     C      0.383700000000     0.831500000000     0.000000000000     0          
H444     H      0.417380000000     0.822180000000     0.000000000000     0          
C445     C      0.352700000000     0.801000000000     0.000000000000     0          
H446     H      0.361470000000     0.767170000000     0.000000000000     0          
O447     O      0.890800000000     0.441600000000     0.000000000000     0          
C448     C      0.883700000000     0.331500000000     0.000000000000     0          
H449     H      0.917380000000     0.322180000000     0.000000000000     0          
C450     C      0.852700000000     0.301000000000     0.000000000000     0          
H451     H      0.861470000000     0.267170000000     0.000000000000     0          
O452     O      0.890800000000     0.941600000000     0.500000000000     0          
C453     C      0.883700000000     0.831500000000     0.500000000000     0          
H454     H      0.917380000000     0.822180000000     0.500000000000     0          
C455     C      0.852700000000     0.801000000000     0.500000000000     0          
H456     H      0.861470000000     0.767170000000     0.500000000000     0          
O457     O      0.609200000000     0.500000000000     0.441600000000     0          
C458     C      0.616300000000     0.500000000000     0.331500000000     0          
H459     H      0.582620000000     0.500000000000     0.322180000000     0          
C460     C      0.647300000000     0.500000000000     0.301000000000     0          
H461     H      0.638530000000     0.500000000000     0.267170000000     0          
O462     O      0.609200000000     0.000000000000     0.941600000000     0          
C463     C      0.616300000000     0.000000000000     0.831500000000     0          
H464     H      0.582620000000     0.000000000000     0.822180000000     0          
C465     C      0.647300000000     0.000000000000     0.801000000000     0          
H466     H      0.638530000000     0.000000000000     0.767170000000     0          
O467     O      0.109200000000     0.500000000000     0.941600000000     0          
C468     C      0.116300000000     0.500000000000     0.831500000000     0          
H469     H      0.082620000000     0.500000000000     0.822180000000     0          
C470     C      0.147300000000     0.500000000000     0.801000000000     0          
H471     H      0.138530000000     0.500000000000     0.767170000000     0          
O472     O      0.109200000000     0.000000000000     0.441600000000     0          
C473     C      0.116300000000     0.000000000000     0.331500000000     0          
H474     H      0.082620000000     0.000000000000     0.322180000000     0          
C475     C      0.147300000000     0.000000000000     0.301000000000     0          
H476     H      0.138530000000     0.000000000000     0.267170000000     0          
O477     O      0.390800000000     0.500000000000     0.441600000000     0          
C478     C      0.383700000000     0.500000000000     0.331500000000     0          
H479     H      0.417380000000     0.500000000000     0.322180000000     0          
C480     C      0.352700000000     0.500000000000     0.301000000000     0          
H481     H      0.361470000000     0.500000000000     0.267170000000     0          
O482     O      0.390800000000     0.000000000000     0.941600000000     0          
C483     C      0.383700000000     0.000000000000     0.831500000000     0          
H484     H      0.417380000000     0.000000000000     0.822180000000     0          
C485     C      0.352700000000     0.000000000000     0.801000000000     0          
H486     H      0.361470000000     0.000000000000     0.767170000000     0          
O487     O      0.890800000000     0.500000000000     0.941600000000     0          
C488     C      0.883700000000     0.500000000000     0.831500000000     0          
H489     H      0.917380000000     0.500000000000     0.822180000000     0          
C490     C      0.852700000000     0.500000000000     0.801000000000     0          
H491     H      0.861470000000     0.500000000000     0.767170000000     0          
O492     O      0.890800000000     0.000000000000     0.441600000000     0          
C493     C      0.883700000000     0.000000000000     0.331500000000     0          
H494     H      0.917380000000     0.000000000000     0.322180000000     0          
C495     C      0.852700000000     0.000000000000     0.301000000000     0          
H496     H      0.861470000000     0.000000000000     0.267170000000     0          
O497     O      0.609200000000     0.500000000000     0.558400000000     0          
C498     C      0.616300000000     0.500000000000     0.668500000000     0          
H499     H      0.582620000000     0.500000000000     0.677820000000     0          
C500     C      0.647300000000     0.500000000000     0.699000000000     0          
H501     H      0.638530000000     0.500000000000     0.732830000000     0          
O502     O      0.609200000000     0.000000000000     0.058400000000     0          
C503     C      0.616300000000     0.000000000000     0.168500000000     0          
H504     H      0.582620000000     0.000000000000     0.177820000000     0          
C505     C      0.647300000000     0.000000000000     0.199000000000     0          
H506     H      0.638530000000     0.000000000000     0.232830000000     0          
O507     O      0.109200000000     0.500000000000     0.058400000000     0          
C508     C      0.116300000000     0.500000000000     0.168500000000     0          
H509     H      0.082620000000     0.500000000000     0.177820000000     0          
C510     C      0.147300000000     0.500000000000     0.199000000000     0          
H511     H      0.138530000000     0.500000000000     0.232830000000     0          
O512     O      0.109200000000     0.000000000000     0.558400000000     0          
C513     C      0.116300000000     0.000000000000     0.668500000000     0          
H514     H      0.082620000000     0.000000000000     0.677820000000     0          
C515     C      0.147300000000     0.000000000000     0.699000000000     0          
H516     H      0.138530000000     0.000000000000     0.732830000000     0          
O517     O      0.390800000000     0.500000000000     0.558400000000     0          
C518     C      0.383700000000     0.500000000000     0.668500000000     0          
H519     H      0.417380000000     0.500000000000     0.677820000000     0          
C520     C      0.352700000000     0.500000000000     0.699000000000     0          
H521     H      0.361470000000     0.500000000000     0.732830000000     0          
O522     O      0.390800000000     0.000000000000     0.058400000000     0          
C523     C      0.383700000000     0.000000000000     0.168500000000     0          
H524     H      0.417380000000     0.000000000000     0.177820000000     0          
C525     C      0.352700000000     0.000000000000     0.199000000000     0          
H526     H      0.361470000000     0.000000000000     0.232830000000     0          
O527     O      0.890800000000     0.500000000000     0.058400000000     0          
C528     C      0.883700000000     0.500000000000     0.168500000000     0          
H529     H      0.917380000000     0.500000000000     0.177820000000     0          
C530     C      0.852700000000     0.500000000000     0.199000000000     0          
H531     H      0.861470000000     0.500000000000     0.232830000000     0          
O532     O      0.890800000000     0.000000000000     0.558400000000     0          
C533     C      0.883700000000     0.000000000000     0.668500000000     0          
H534     H      0.917380000000     0.000000000000     0.677820000000     0          
C535     C      0.852700000000     0.000000000000     0.699000000000     0          
H536     H      0.861470000000     0.000000000000     0.732830000000     0          
O537     O      0.500000000000     0.558400000000     0.390800000000     0          
C538     C      0.500000000000     0.668500000000     0.383700000000     0          
H539     H      0.500000000000     0.677820000000     0.417380000000     0          
C540     C      0.500000000000     0.699000000000     0.352700000000     0          
H541     H      0.500000000000     0.732830000000     0.361470000000     0          
O542     O      0.500000000000     0.058400000000     0.890800000000     0          
C543     C      0.500000000000     0.168500000000     0.883700000000     0          
H544     H      0.500000000000     0.177820000000     0.917380000000     0          
C545     C      0.500000000000     0.199000000000     0.852700000000     0          
H546     H      0.500000000000     0.232830000000     0.861470000000     0          
O547     O      0.000000000000     0.558400000000     0.890800000000     0          
C548     C      0.000000000000     0.668500000000     0.883700000000     0          
H549     H      0.000000000000     0.677820000000     0.917380000000     0          
C550     C      0.000000000000     0.699000000000     0.852700000000     0          
H551     H      0.000000000000     0.732830000000     0.861470000000     0          
O552     O      0.000000000000     0.058400000000     0.390800000000     0          
C553     C      0.000000000000     0.168500000000     0.383700000000     0          
H554     H      0.000000000000     0.177820000000     0.417380000000     0          
C555     C      0.000000000000     0.199000000000     0.352700000000     0          
H556     H      0.000000000000     0.232830000000     0.361470000000     0          
O557     O      0.500000000000     0.558400000000     0.609200000000     0          
C558     C      0.500000000000     0.668500000000     0.616300000000     0          
H559     H      0.500000000000     0.677820000000     0.582620000000     0          
C560     C      0.500000000000     0.699000000000     0.647300000000     0          
H561     H      0.500000000000     0.732830000000     0.638530000000     0          
O562     O      0.500000000000     0.058400000000     0.109200000000     0          
C563     C      0.500000000000     0.168500000000     0.116300000000     0          
H564     H      0.500000000000     0.177820000000     0.082620000000     0          
C565     C      0.500000000000     0.199000000000     0.147300000000     0          
H566     H      0.500000000000     0.232830000000     0.138530000000     0          
O567     O      0.000000000000     0.558400000000     0.109200000000     0          
C568     C      0.000000000000     0.668500000000     0.116300000000     0          
H569     H      0.000000000000     0.677820000000     0.082620000000     0          
C570     C      0.000000000000     0.699000000000     0.147300000000     0          
H571     H      0.000000000000     0.732830000000     0.138530000000     0          
O572     O      0.000000000000     0.058400000000     0.609200000000     0          
C573     C      0.000000000000     0.168500000000     0.616300000000     0          
H574     H      0.000000000000     0.177820000000     0.582620000000     0          
C575     C      0.000000000000     0.199000000000     0.647300000000     0          
H576     H      0.000000000000     0.232830000000     0.638530000000     0          
O577     O      0.500000000000     0.441600000000     0.390800000000     0          
C578     C      0.500000000000     0.331500000000     0.383700000000     0          
H579     H      0.500000000000     0.322180000000     0.417380000000     0          
C580     C      0.500000000000     0.301000000000     0.352700000000     0          
H581     H      0.500000000000     0.267170000000     0.361470000000     0          
O582     O      0.500000000000     0.941600000000     0.890800000000     0          
C583     C      0.500000000000     0.831500000000     0.883700000000     0          
H584     H      0.500000000000     0.822180000000     0.917380000000     0          
C585     C      0.500000000000     0.801000000000     0.852700000000     0          
H586     H      0.500000000000     0.767170000000     0.861470000000     0          
O587     O      0.000000000000     0.441600000000     0.890800000000     0          
C588     C      0.000000000000     0.331500000000     0.883700000000     0          
H589     H      0.000000000000     0.322180000000     0.917380000000     0          
C590     C      0.000000000000     0.301000000000     0.852700000000     0          
H591     H      0.000000000000     0.267170000000     0.861470000000     0          
O592     O      0.000000000000     0.941600000000     0.390800000000     0          
C593     C      0.000000000000     0.831500000000     0.383700000000     0          
H594     H      0.000000000000     0.822180000000     0.417380000000     0          
C595     C      0.000000000000     0.801000000000     0.352700000000     0          
H596     H      0.000000000000     0.767170000000     0.361470000000     0          
O597     O      0.500000000000     0.441600000000     0.609200000000     0          
C598     C      0.500000000000     0.331500000000     0.616300000000     0          
H599     H      0.500000000000     0.322180000000     0.582620000000     0          
C600     C      0.500000000000     0.301000000000     0.647300000000     0          
H601     H      0.500000000000     0.267170000000     0.638530000000     0          
O602     O      0.500000000000     0.941600000000     0.109200000000     0          
C603     C      0.500000000000     0.831500000000     0.116300000000     0          
H604     H      0.500000000000     0.822180000000     0.082620000000     0          
C605     C      0.500000000000     0.801000000000     0.147300000000     0          
H606     H      0.500000000000     0.767170000000     0.138530000000     0          
O607     O      0.000000000000     0.441600000000     0.109200000000     0          
C608     C      0.000000000000     0.331500000000     0.116300000000     0          
H609     H      0.000000000000     0.322180000000     0.082620000000     0          
C610     C      0.000000000000     0.301000000000     0.147300000000     0          
H611     H      0.000000000000     0.267170000000     0.138530000000     0          
O612     O      0.000000000000     0.941600000000     0.609200000000     0          
C613     C      0.000000000000     0.831500000000     0.616300000000     0          
H614     H      0.000000000000     0.822180000000     0.582620000000     0          
C615     C      0.000000000000     0.801000000000     0.647300000000     0          
H616     H      0.000000000000     0.767170000000     0.638530000000     0          
O617     O      0.558400000000     0.609200000000     0.500000000000     0          
C618     C      0.668500000000     0.616300000000     0.500000000000     0          
H619     H      0.677820000000     0.582620000000     0.500000000000     0          
C620     C      0.699000000000     0.647300000000     0.500000000000     0          
H621     H      0.732830000000     0.638530000000     0.500000000000     0          
O622     O      0.558400000000     0.109200000000     0.000000000000     0          
C623     C      0.668500000000     0.116300000000     0.000000000000     0          
H624     H      0.677820000000     0.082620000000     0.000000000000     0          
C625     C      0.699000000000     0.147300000000     0.000000000000     0          
H626     H      0.732830000000     0.138530000000     0.000000000000     0          
O627     O      0.058400000000     0.609200000000     0.000000000000     0          
C628     C      0.168500000000     0.616300000000     0.000000000000     0          
H629     H      0.177820000000     0.582620000000     0.000000000000     0          
C630     C      0.199000000000     0.647300000000     0.000000000000     0          
H631     H      0.232830000000     0.638530000000     0.000000000000     0          
O632     O      0.058400000000     0.109200000000     0.500000000000     0          
C633     C      0.168500000000     0.116300000000     0.500000000000     0          
H634     H      0.177820000000     0.082620000000     0.500000000000     0          
C635     C      0.199000000000     0.147300000000     0.500000000000     0          
H636     H      0.232830000000     0.138530000000     0.500000000000     0          
O637     O      0.558400000000     0.390800000000     0.500000000000     0          
C638     C      0.668500000000     0.383700000000     0.500000000000     0          
H639     H      0.677820000000     0.417380000000     0.500000000000     0          
C640     C      0.699000000000     0.352700000000     0.500000000000     0          
H641     H      0.732830000000     0.361470000000     0.500000000000     0          
O642     O      0.558400000000     0.890800000000     0.000000000000     0          
C643     C      0.668500000000     0.883700000000     0.000000000000     0          
H644     H      0.677820000000     0.917380000000     0.000000000000     0          
C645     C      0.699000000000     0.852700000000     0.000000000000     0          
H646     H      0.732830000000     0.861470000000     0.000000000000     0          
O647     O      0.058400000000     0.390800000000     0.000000000000     0          
C648     C      0.168500000000     0.383700000000     0.000000000000     0          
H649     H      0.177820000000     0.417380000000     0.000000000000     0          
C650     C      0.199000000000     0.352700000000     0.000000000000     0          
H651     H      0.232830000000     0.361470000000     0.000000000000     0          
O652     O      0.058400000000     0.890800000000     0.500000000000     0          
C653     C      0.168500000000     0.883700000000     0.500000000000     0          
H654     H      0.177820000000     0.917380000000     0.500000000000     0          
C655     C      0.199000000000     0.852700000000     0.500000000000     0          
H656     H      0.232830000000     0.861470000000     0.500000000000     0          
O657     O      0.441600000000     0.609200000000     0.500000000000     0          
C658     C      0.331500000000     0.616300000000     0.500000000000     0          
H659     H      0.322180000000     0.582620000000     0.500000000000     0          
C660     C      0.301000000000     0.647300000000     0.500000000000     0          
H661     H      0.267170000000     0.638530000000     0.500000000000     0          
O662     O      0.441600000000     0.109200000000     0.000000000000     0          
C663     C      0.331500000000     0.116300000000     0.000000000000     0          
H664     H      0.322180000000     0.082620000000     0.000000000000     0          
C665     C      0.301000000000     0.147300000000     0.000000000000     0          
H666     H      0.267170000000     0.138530000000     0.000000000000     0          
O667     O      0.941600000000     0.609200000000     0.000000000000     0          
C668     C      0.831500000000     0.616300000000     0.000000000000     0          
H669     H      0.822180000000     0.582620000000     0.000000000000     0          
C670     C      0.801000000000     0.647300000000     0.000000000000     0          
H671     H      0.767170000000     0.638530000000     0.000000000000     0          
O672     O      0.941600000000     0.109200000000     0.500000000000     0          
C673     C      0.831500000000     0.116300000000     0.500000000000     0          
H674     H      0.822180000000     0.082620000000     0.500000000000     0          
C675     C      0.801000000000     0.147300000000     0.500000000000     0          
H676     H      0.767170000000     0.138530000000     0.500000000000     0          
O677     O      0.441600000000     0.390800000000     0.500000000000     0          
C678     C      0.331500000000     0.383700000000     0.500000000000     0          
H679     H      0.322180000000     0.417380000000     0.500000000000     0          
C680     C      0.301000000000     0.352700000000     0.500000000000     0          
H681     H      0.267170000000     0.361470000000     0.500000000000     0          
O682     O      0.441600000000     0.890800000000     0.000000000000     0          
C683     C      0.331500000000     0.883700000000     0.000000000000     0          
H684     H      0.322180000000     0.917380000000     0.000000000000     0          
C685     C      0.301000000000     0.852700000000     0.000000000000     0          
H686     H      0.267170000000     0.861470000000     0.000000000000     0          
O687     O      0.941600000000     0.390800000000     0.000000000000     0          
C688     C      0.831500000000     0.383700000000     0.000000000000     0          
H689     H      0.822180000000     0.417380000000     0.000000000000     0          
C690     C      0.801000000000     0.352700000000     0.000000000000     0          
H691     H      0.767170000000     0.361470000000     0.000000000000     0          
O692     O      0.941600000000     0.890800000000     0.500000000000     0          
C693     C      0.831500000000     0.883700000000     0.500000000000     0          
H694     H      0.822180000000     0.917380000000     0.500000000000     0          
C695     C      0.801000000000     0.852700000000     0.500000000000     0          
H696     H      0.767170000000     0.861470000000     0.500000000000     0          
O697     O      0.462900000000     0.537100000000     0.462900000000     0          
O699     O      0.462900000000     0.037100000000     0.962900000000     0          
O703     O      0.962900000000     0.037100000000     0.462900000000     0          
O705     O      0.537100000000     0.462900000000     0.462900000000     0          
O709     O      0.037100000000     0.462900000000     0.962900000000     0          
O711     O      0.037100000000     0.962900000000     0.462900000000     0          
O713     O      0.537100000000     0.537100000000     0.537100000000     0          
O715     O      0.537100000000     0.037100000000     0.037100000000     0          
O717     O      0.037100000000     0.537100000000     0.037100000000     0          
O719     O      0.037100000000     0.037100000000     0.537100000000     0          
O721     O      0.462900000000     0.462900000000     0.537100000000     0          
O723     O      0.462900000000     0.962900000000     0.037100000000     0          
O725     O      0.962900000000     0.462900000000     0.037100000000     0          
O729     O      0.537100000000     0.462900000000     0.537100000000     0          
O731     O      0.537100000000     0.962900000000     0.037100000000     0          
O733     O      0.037100000000     0.462900000000     0.037100000000     0          
O735     O      0.037100000000     0.962900000000     0.537100000000     0          
O737     O      0.462900000000     0.537100000000     0.537100000000     0          
O739     O      0.462900000000     0.037100000000     0.037100000000     0          
O741     O      0.962900000000     0.537100000000     0.037100000000     0          
O743     O      0.962900000000     0.037100000000     0.537100000000     0          
O745     O      0.537100000000     0.537100000000     0.462900000000     0          
O747     O      0.537100000000     0.037100000000     0.962900000000     0          
O749     O      0.037100000000     0.537100000000     0.962900000000     0          
O751     O      0.037100000000     0.037100000000     0.462900000000     0          
O753     O      0.462900000000     0.462900000000     0.462900000000     0          
C761     C      0.500000000000     0.595300000000     0.595300000000     0          
C762     C      0.500000000000     0.627500000000     0.627500000000     0          
C763     C      0.500000000000     0.688100000000     0.688100000000     0          
C764     C      0.500000000000     0.719650000000     0.719650000000     0          
C765     C      0.500000000000     0.095300000000     0.095300000000     0          
C766     C      0.500000000000     0.127500000000     0.127500000000     0          
C767     C      0.500000000000     0.188100000000     0.188100000000     0          
C768     C      0.500000000000     0.219650000000     0.219650000000     0          
C769     C      0.000000000000     0.595300000000     0.095300000000     0          
C770     C      0.000000000000     0.627500000000     0.127500000000     0          
C771     C      0.000000000000     0.688100000000     0.188100000000     0          
C772     C      0.000000000000     0.719650000000     0.219650000000     0          
C773     C      0.000000000000     0.095300000000     0.595300000000     0          
C774     C      0.000000000000     0.127500000000     0.627500000000     0          
C775     C      0.000000000000     0.188100000000     0.688100000000     0          
C776     C      0.000000000000     0.219650000000     0.719650000000     0          
C777     C      0.500000000000     0.404700000000     0.595300000000     0          
C778     C      0.500000000000     0.372500000000     0.627500000000     0          
C779     C      0.500000000000     0.311900000000     0.688100000000     0          
C780     C      0.500000000000     0.280350000000     0.719650000000     0          
C781     C      0.500000000000     0.904700000000     0.095300000000     0          
C782     C      0.500000000000     0.872500000000     0.127500000000     0          
C783     C      0.500000000000     0.811900000000     0.188100000000     0          
C784     C      0.500000000000     0.780350000000     0.219650000000     0          
C785     C      0.000000000000     0.404700000000     0.095300000000     0          
C786     C      0.000000000000     0.372500000000     0.127500000000     0          
C787     C      0.000000000000     0.311900000000     0.188100000000     0          
C788     C      0.000000000000     0.280350000000     0.219650000000     0          
C789     C      0.000000000000     0.904700000000     0.595300000000     0          
C790     C      0.000000000000     0.872500000000     0.627500000000     0          
C791     C      0.000000000000     0.811900000000     0.688100000000     0          
C792     C      0.000000000000     0.780350000000     0.719650000000     0          
C793     C      0.500000000000     0.595300000000     0.404700000000     0          
C794     C      0.500000000000     0.627500000000     0.372500000000     0          
C795     C      0.500000000000     0.688100000000     0.311900000000     0          
C796     C      0.500000000000     0.719650000000     0.280350000000     0          
C797     C      0.500000000000     0.095300000000     0.904700000000     0          
C798     C      0.500000000000     0.127500000000     0.872500000000     0          
C799     C      0.500000000000     0.188100000000     0.811900000000     0          
C800     C      0.500000000000     0.219650000000     0.780350000000     0          
C801     C      0.000000000000     0.595300000000     0.904700000000     0          
C802     C      0.000000000000     0.627500000000     0.872500000000     0          
C803     C      0.000000000000     0.688100000000     0.811900000000     0          
C804     C      0.000000000000     0.719650000000     0.780350000000     0          
C805     C      0.000000000000     0.095300000000     0.404700000000     0          
C806     C      0.000000000000     0.127500000000     0.372500000000     0          
C807     C      0.000000000000     0.188100000000     0.311900000000     0          
C808     C      0.000000000000     0.219650000000     0.280350000000     0          
C809     C      0.500000000000     0.404700000000     0.404700000000     0          
C810     C      0.500000000000     0.372500000000     0.372500000000     0          
C811     C      0.500000000000     0.311900000000     0.311900000000     0          
C812     C      0.500000000000     0.280350000000     0.280350000000     0          
C813     C      0.500000000000     0.904700000000     0.904700000000     0          
C814     C      0.500000000000     0.872500000000     0.872500000000     0          
C815     C      0.500000000000     0.811900000000     0.811900000000     0          
C816     C      0.500000000000     0.780350000000     0.780350000000     0          
C817     C      0.000000000000     0.404700000000     0.904700000000     0          
C818     C      0.000000000000     0.372500000000     0.872500000000     0          
C819     C      0.000000000000     0.311900000000     0.811900000000     0          
C820     C      0.000000000000     0.280350000000     0.780350000000     0          
C821     C      0.000000000000     0.904700000000     0.404700000000     0          
C822     C      0.000000000000     0.872500000000     0.372500000000     0          
C823     C      0.000000000000     0.811900000000     0.311900000000     0          
C824     C      0.000000000000     0.780350000000     0.280350000000     0          
C825     C      0.595300000000     0.500000000000     0.595300000000     0          
C826     C      0.627500000000     0.500000000000     0.627500000000     0          
C827     C      0.688100000000     0.500000000000     0.688100000000     0          
C828     C      0.719650000000     0.500000000000     0.719650000000     0          
C829     C      0.595300000000     0.000000000000     0.095300000000     0          
C830     C      0.627500000000     0.000000000000     0.127500000000     0          
C831     C      0.688100000000     0.000000000000     0.188100000000     0          
C832     C      0.719650000000     0.000000000000     0.219650000000     0          
C833     C      0.095300000000     0.500000000000     0.095300000000     0          
C834     C      0.127500000000     0.500000000000     0.127500000000     0          
C835     C      0.188100000000     0.500000000000     0.188100000000     0          
C836     C      0.219650000000     0.500000000000     0.219650000000     0          
C837     C      0.095300000000     0.000000000000     0.595300000000     0          
C838     C      0.127500000000     0.000000000000     0.627500000000     0          
C839     C      0.188100000000     0.000000000000     0.688100000000     0          
C840     C      0.219650000000     0.000000000000     0.719650000000     0          
C841     C      0.595300000000     0.500000000000     0.404700000000     0          
C842     C      0.627500000000     0.500000000000     0.372500000000     0          
C843     C      0.688100000000     0.500000000000     0.311900000000     0          
C844     C      0.719650000000     0.500000000000     0.280350000000     0          
C845     C      0.595300000000     0.000000000000     0.904700000000     0          
C846     C      0.627500000000     0.000000000000     0.872500000000     0          
C847     C      0.688100000000     0.000000000000     0.811900000000     0          
C848     C      0.719650000000     0.000000000000     0.780350000000     0          
C849     C      0.095300000000     0.500000000000     0.904700000000     0          
C850     C      0.127500000000     0.500000000000     0.872500000000     0          
C851     C      0.188100000000     0.500000000000     0.811900000000     0          
C852     C      0.219650000000     0.500000000000     0.780350000000     0          
C853     C      0.095300000000     0.000000000000     0.404700000000     0          
C854     C      0.127500000000     0.000000000000     0.372500000000     0          
C855     C      0.188100000000     0.000000000000     0.311900000000     0          
C856     C      0.219650000000     0.000000000000     0.280350000000     0          
C857     C      0.404700000000     0.500000000000     0.595300000000     0          
C858     C      0.372500000000     0.500000000000     0.627500000000     0          
C859     C      0.311900000000     0.500000000000     0.688100000000     0          
C860     C      0.280350000000     0.500000000000     0.719650000000     0          
C861     C      0.404700000000     0.000000000000     0.095300000000     0          
C862     C      0.372500000000     0.000000000000     0.127500000000     0          
C863     C      0.311900000000     0.000000000000     0.188100000000     0          
C864     C      0.280350000000     0.000000000000     0.219650000000     0          
C865     C      0.904700000000     0.500000000000     0.095300000000     0          
C866     C      0.872500000000     0.500000000000     0.127500000000     0          
C867     C      0.811900000000     0.500000000000     0.188100000000     0          
C868     C      0.780350000000     0.500000000000     0.219650000000     0          
C869     C      0.904700000000     0.000000000000     0.595300000000     0          
C870     C      0.872500000000     0.000000000000     0.627500000000     0          
C871     C      0.811900000000     0.000000000000     0.688100000000     0          
C872     C      0.780350000000     0.000000000000     0.719650000000     0          
C873     C      0.404700000000     0.500000000000     0.404700000000     0          
C874     C      0.372500000000     0.500000000000     0.372500000000     0          
C875     C      0.311900000000     0.500000000000     0.311900000000     0          
C876     C      0.280350000000     0.500000000000     0.280350000000     0          
C877     C      0.404700000000     0.000000000000     0.904700000000     0          
C878     C      0.372500000000     0.000000000000     0.872500000000     0          
C879     C      0.311900000000     0.000000000000     0.811900000000     0          
C880     C      0.280350000000     0.000000000000     0.780350000000     0          
C881     C      0.904700000000     0.500000000000     0.904700000000     0          
C882     C      0.872500000000     0.500000000000     0.872500000000     0          
C883     C      0.811900000000     0.500000000000     0.811900000000     0          
C884     C      0.780350000000     0.500000000000     0.780350000000     0          
C885     C      0.904700000000     0.000000000000     0.404700000000     0          
C886     C      0.872500000000     0.000000000000     0.372500000000     0          
C887     C      0.811900000000     0.000000000000     0.311900000000     0          
C888     C      0.780350000000     0.000000000000     0.280350000000     0          
C889     C      0.595300000000     0.595300000000     0.500000000000     0          
C890     C      0.627500000000     0.627500000000     0.500000000000     0          
C891     C      0.688100000000     0.688100000000     0.500000000000     0          
C892     C      0.719650000000     0.719650000000     0.500000000000     0          
C893     C      0.595300000000     0.095300000000     0.000000000000     0          
C894     C      0.627500000000     0.127500000000     0.000000000000     0          
C895     C      0.688100000000     0.188100000000     0.000000000000     0          
C896     C      0.719650000000     0.219650000000     0.000000000000     0          
C897     C      0.095300000000     0.595300000000     0.000000000000     0          
C898     C      0.127500000000     0.627500000000     0.000000000000     0          
C899     C      0.188100000000     0.688100000000     0.000000000000     0          
C900     C      0.219650000000     0.719650000000     0.000000000000     0          
C901     C      0.095300000000     0.095300000000     0.500000000000     0          
C902     C      0.127500000000     0.127500000000     0.500000000000     0          
C903     C      0.188100000000     0.188100000000     0.500000000000     0          
C904     C      0.219650000000     0.219650000000     0.500000000000     0          
C905     C      0.404700000000     0.595300000000     0.500000000000     0          
C906     C      0.372500000000     0.627500000000     0.500000000000     0          
C907     C      0.311900000000     0.688100000000     0.500000000000     0          
C908     C      0.280350000000     0.719650000000     0.500000000000     0          
C909     C      0.404700000000     0.095300000000     0.000000000000     0          
C910     C      0.372500000000     0.127500000000     0.000000000000     0          
C911     C      0.311900000000     0.188100000000     0.000000000000     0          
C912     C      0.280350000000     0.219650000000     0.000000000000     0          
C913     C      0.904700000000     0.595300000000     0.000000000000     0          
C914     C      0.872500000000     0.627500000000     0.000000000000     0          
C915     C      0.811900000000     0.688100000000     0.000000000000     0          
C916     C      0.780350000000     0.719650000000     0.000000000000     0          
C917     C      0.904700000000     0.095300000000     0.500000000000     0          
C918     C      0.872500000000     0.127500000000     0.500000000000     0          
C919     C      0.811900000000     0.188100000000     0.500000000000     0          
C920     C      0.780350000000     0.219650000000     0.500000000000     0          
C921     C      0.595300000000     0.404700000000     0.500000000000     0          
C922     C      0.627500000000     0.372500000000     0.500000000000     0          
C923     C      0.688100000000     0.311900000000     0.500000000000     0          
C924     C      0.719650000000     0.280350000000     0.500000000000     0          
C925     C      0.595300000000     0.904700000000     0.000000000000     0          
C926     C      0.627500000000     0.872500000000     0.000000000000     0          
C927     C      0.688100000000     0.811900000000     0.000000000000     0          
C928     C      0.719650000000     0.780350000000     0.000000000000     0          
C929     C      0.095300000000     0.404700000000     0.000000000000     0          
C930     C      0.127500000000     0.372500000000     0.000000000000     0          
C931     C      0.188100000000     0.311900000000     0.000000000000     0          
C932     C      0.219650000000     0.280350000000     0.000000000000     0          
C933     C      0.095300000000     0.904700000000     0.500000000000     0          
C934     C      0.127500000000     0.872500000000     0.500000000000     0          
C935     C      0.188100000000     0.811900000000     0.500000000000     0          
C936     C      0.219650000000     0.780350000000     0.500000000000     0          
C937     C      0.404700000000     0.404700000000     0.500000000000     0          
C938     C      0.372500000000     0.372500000000     0.500000000000     0          
C939     C      0.311900000000     0.311900000000     0.500000000000     0          
C940     C      0.280350000000     0.280350000000     0.500000000000     0          
C941     C      0.404700000000     0.904700000000     0.000000000000     0          
C942     C      0.372500000000     0.872500000000     0.000000000000     0          
C943     C      0.311900000000     0.811900000000     0.000000000000     0          
C944     C      0.280350000000     0.780350000000     0.000000000000     0          
C945     C      0.904700000000     0.404700000000     0.000000000000     0          
C946     C      0.872500000000     0.372500000000     0.000000000000     0          
C947     C      0.811900000000     0.311900000000     0.000000000000     0          
C948     C      0.780350000000     0.280350000000     0.000000000000     0          
C949     C      0.904700000000     0.904700000000     0.500000000000     0          
C950     C      0.872500000000     0.872500000000     0.500000000000     0          
C951     C      0.811900000000     0.811900000000     0.500000000000     0          
C952     C      0.780350000000     0.780350000000     0.500000000000     0          
C953     C      0.463120000000     0.734610000000     0.734610000000     0          
O954     O      0.427900000000     0.717800000000     0.717800000000     0          
C956     C      0.463120000000     0.234610000000     0.234610000000     0          
H958     H      0.432900000000     0.222190000000     0.222190000000     0          
C959     C      0.963120000000     0.734610000000     0.234610000000     0          
H961     H      0.932900000000     0.722190000000     0.222190000000     0          
C962     C      0.963120000000     0.234610000000     0.734610000000     0          
H964     H      0.932900000000     0.222190000000     0.722190000000     0          
C965     C      0.536880000000     0.265390000000     0.734610000000     0          
O966     O      0.572100000000     0.282200000000     0.717800000000     0          
C968     C      0.536880000000     0.765390000000     0.234610000000     0          
H970     H      0.567100000000     0.777810000000     0.222190000000     0          
C971     C      0.036880000000     0.265390000000     0.234610000000     0          
O972     O      0.072100000000     0.282200000000     0.217800000000     0          
C974     C      0.036880000000     0.765390000000     0.734610000000     0          
O975     O      0.072100000000     0.782200000000     0.717800000000     0          
C977     C      0.536880000000     0.734610000000     0.265390000000     0          
O978     O      0.572100000000     0.717800000000     0.282200000000     0          
C980     C      0.536880000000     0.234610000000     0.765390000000     0          
H982     H      0.567100000000     0.222190000000     0.777810000000     0          
C983     C      0.036880000000     0.734610000000     0.765390000000     0          
H985     H      0.067100000000     0.722190000000     0.777810000000     0          
C986     C      0.036880000000     0.234610000000     0.265390000000     0          
H988     H      0.067100000000     0.222190000000     0.277810000000     0          
C989     C      0.463120000000     0.265390000000     0.265390000000     0          
O990     O      0.427900000000     0.282200000000     0.282200000000     0          
C992     C      0.463120000000     0.765390000000     0.765390000000     0          
H994     H      0.432850000000     0.777750000000     0.777750000000     0          
C995     C      0.963120000000     0.265390000000     0.765390000000     0          
O996     O      0.927900000000     0.282200000000     0.782200000000     0          
C998     C      0.963120000000     0.765390000000     0.265390000000     0          
O999     O      0.927900000000     0.782200000000     0.282200000000     0          
C1001    C      0.734610000000     0.463120000000     0.734610000000     0          
H1003    H      0.722190000000     0.432900000000     0.722190000000     0          
C1004    C      0.734610000000     0.963120000000     0.234610000000     0          
O1005    O      0.717800000000     0.927900000000     0.217800000000     0          
C1007    C      0.234610000000     0.463120000000     0.234610000000     0          
O1008    O      0.217800000000     0.427900000000     0.217800000000     0          
C1010    C      0.234610000000     0.963120000000     0.734610000000     0          
H1012    H      0.222190000000     0.932900000000     0.722190000000     0          
C1013    C      0.734610000000     0.536880000000     0.265390000000     0          
O1014    O      0.717800000000     0.572100000000     0.282200000000     0          
C1016    C      0.734610000000     0.036880000000     0.765390000000     0          
H1018    H      0.722190000000     0.067100000000     0.777810000000     0          
C1019    C      0.234610000000     0.536880000000     0.765390000000     0          
H1021    H      0.222190000000     0.567100000000     0.777810000000     0          
C1022    C      0.234610000000     0.036880000000     0.265390000000     0          
O1023    O      0.217800000000     0.072100000000     0.282200000000     0          
C1025    C      0.265390000000     0.536880000000     0.734610000000     0          
O1026    O      0.282200000000     0.572100000000     0.717800000000     0          
C1028    C      0.265390000000     0.036880000000     0.234610000000     0          
H1030    H      0.277810000000     0.067100000000     0.222190000000     0          
C1031    C      0.765390000000     0.536880000000     0.234610000000     0          
H1033    H      0.777810000000     0.567100000000     0.222190000000     0          
C1034    C      0.765390000000     0.036880000000     0.734610000000     0          
O1035    O      0.782200000000     0.072100000000     0.717800000000     0          
C1037    C      0.265390000000     0.463120000000     0.265390000000     0          
H1039    H      0.277750000000     0.432850000000     0.277750000000     0          
C1040    C      0.265390000000     0.963120000000     0.765390000000     0          
O1041    O      0.282200000000     0.927900000000     0.782200000000     0          
C1043    C      0.765390000000     0.463120000000     0.765390000000     0          
O1044    O      0.782200000000     0.427900000000     0.782200000000     0          
C1046    C      0.765390000000     0.963120000000     0.265390000000     0          
H1048    H      0.777750000000     0.932850000000     0.277750000000     0          
C1049    C      0.734610000000     0.734610000000     0.463120000000     0          
O1050    O      0.717800000000     0.717800000000     0.427900000000     0          
C1052    C      0.734610000000     0.234610000000     0.963120000000     0          
H1054    H      0.722190000000     0.222190000000     0.932900000000     0          
C1055    C      0.234610000000     0.734610000000     0.963120000000     0          
O1056    O      0.217800000000     0.717800000000     0.927900000000     0          
C1058    C      0.234610000000     0.234610000000     0.463120000000     0          
H1060    H      0.222190000000     0.222190000000     0.432900000000     0          
C1061    C      0.265390000000     0.734610000000     0.536880000000     0          
H1063    H      0.277810000000     0.722190000000     0.567100000000     0          
C1064    C      0.265390000000     0.234610000000     0.036880000000     0          
O1065    O      0.282200000000     0.217800000000     0.072100000000     0          
C1067    C      0.765390000000     0.734610000000     0.036880000000     0          
H1069    H      0.777810000000     0.722190000000     0.067100000000     0          
C1070    C      0.765390000000     0.234610000000     0.536880000000     0          
O1071    O      0.782200000000     0.217800000000     0.572100000000     0          
C1073    C      0.734610000000     0.265390000000     0.536880000000     0          
H1075    H      0.722190000000     0.277810000000     0.567100000000     0          
C1076    C      0.734610000000     0.765390000000     0.036880000000     0          
O1077    O      0.717800000000     0.782200000000     0.072100000000     0          
C1079    C      0.234610000000     0.265390000000     0.036880000000     0          
H1081    H      0.222190000000     0.277810000000     0.067100000000     0          
C1082    C      0.234610000000     0.765390000000     0.536880000000     0          
O1083    O      0.217800000000     0.782200000000     0.572100000000     0          
C1085    C      0.265390000000     0.265390000000     0.463120000000     0          
O1086    O      0.282200000000     0.282200000000     0.427900000000     0          
C1088    C      0.265390000000     0.765390000000     0.963120000000     0          
H1090    H      0.277750000000     0.777750000000     0.932850000000     0          
C1091    C      0.765390000000     0.265390000000     0.963120000000     0          
O1092    O      0.782200000000     0.282200000000     0.927900000000     0          
C1094    C      0.765390000000     0.765390000000     0.463120000000     0          
H1096    H      0.777750000000     0.777750000000     0.432850000000     0          
C1097    C      0.734610000000     0.463120000000     0.265390000000     0          
H1099    H      0.722190000000     0.432900000000     0.277810000000     0          
C1100    C      0.734610000000     0.963120000000     0.765390000000     0          
O1101    O      0.717800000000     0.927900000000     0.782200000000     0          
C1103    C      0.234610000000     0.463120000000     0.765390000000     0          
O1104    O      0.217800000000     0.427900000000     0.782200000000     0          
C1106    C      0.234610000000     0.963120000000     0.265390000000     0          
H1108    H      0.222190000000     0.932900000000     0.277810000000     0          
C1109    C      0.265390000000     0.536880000000     0.265390000000     0          
O1110    O      0.282200000000     0.572100000000     0.282200000000     0          
C1112    C      0.265390000000     0.036880000000     0.765390000000     0          
H1114    H      0.277810000000     0.067100000000     0.777810000000     0          
C1115    C      0.765390000000     0.536880000000     0.765390000000     0          
H1117    H      0.777810000000     0.567100000000     0.777810000000     0          
C1118    C      0.765390000000     0.036880000000     0.265390000000     0          
O1119    O      0.782200000000     0.072100000000     0.282200000000     0          
C1121    C      0.734610000000     0.536880000000     0.734610000000     0          
O1122    O      0.717800000000     0.572100000000     0.717800000000     0          
C1124    C      0.734610000000     0.036880000000     0.234610000000     0          
H1126    H      0.722190000000     0.067100000000     0.222190000000     0          
C1127    C      0.234610000000     0.536880000000     0.234610000000     0          
H1129    H      0.222190000000     0.567100000000     0.222190000000     0          
C1130    C      0.234610000000     0.036880000000     0.734610000000     0          
O1131    O      0.217800000000     0.072100000000     0.717800000000     0          
C1133    C      0.265390000000     0.463120000000     0.734610000000     0          
H1135    H      0.277750000000     0.432850000000     0.722250000000     0          
C1136    C      0.265390000000     0.963120000000     0.234610000000     0          
O1137    O      0.282200000000     0.927900000000     0.217800000000     0          
C1139    C      0.765390000000     0.463120000000     0.234610000000     0          
O1140    O      0.782200000000     0.427900000000     0.217800000000     0          
C1142    C      0.765390000000     0.963120000000     0.734610000000     0          
H1144    H      0.777750000000     0.932850000000     0.722250000000     0          
C1145    C      0.463120000000     0.734610000000     0.265390000000     0          
H1147    H      0.432900000000     0.722190000000     0.277810000000     0          
C1148    C      0.463120000000     0.234610000000     0.765390000000     0          
O1149    O      0.427900000000     0.217800000000     0.782200000000     0          
C1151    C      0.963120000000     0.734610000000     0.765390000000     0          
O1152    O      0.927900000000     0.717800000000     0.782200000000     0          
C1154    C      0.963120000000     0.234610000000     0.265390000000     0          
O1155    O      0.927900000000     0.217800000000     0.282200000000     0          
C1157    C      0.536880000000     0.734610000000     0.734610000000     0          
H1159    H      0.567100000000     0.722190000000     0.722190000000     0          
C1160    C      0.536880000000     0.234610000000     0.234610000000     0          
O1161    O      0.572100000000     0.217800000000     0.217800000000     0          
C1163    C      0.036880000000     0.734610000000     0.234610000000     0          
O1164    O      0.072100000000     0.717800000000     0.217800000000     0          
C1166    C      0.036880000000     0.234610000000     0.734610000000     0          
O1167    O      0.072100000000     0.217800000000     0.717800000000     0          
C1169    C      0.536880000000     0.265390000000     0.265390000000     0          
H1171    H      0.567100000000     0.277810000000     0.277810000000     0          
C1172    C      0.536880000000     0.765390000000     0.765390000000     0          
O1173    O      0.572100000000     0.782200000000     0.782200000000     0          
C1175    C      0.036880000000     0.265390000000     0.765390000000     0          
H1177    H      0.067100000000     0.277810000000     0.777810000000     0          
C1178    C      0.036880000000     0.765390000000     0.265390000000     0          
H1180    H      0.067100000000     0.777810000000     0.277810000000     0          
C1181    C      0.463120000000     0.265390000000     0.734610000000     0          
H1183    H      0.432850000000     0.277750000000     0.722250000000     0          
C1184    C      0.463120000000     0.765390000000     0.234610000000     0          
O1185    O      0.427900000000     0.782200000000     0.217800000000     0          
C1187    C      0.963120000000     0.265390000000     0.234610000000     0          
H1189    H      0.932850000000     0.277750000000     0.222250000000     0          
C1190    C      0.963120000000     0.765390000000     0.734610000000     0          
H1192    H      0.932850000000     0.777750000000     0.722250000000     0          
C1193    C      0.734610000000     0.734610000000     0.536880000000     0          
H1195    H      0.722190000000     0.722190000000     0.567100000000     0          
C1196    C      0.734610000000     0.234610000000     0.036880000000     0          
O1197    O      0.717800000000     0.217800000000     0.072100000000     0          
C1199    C      0.234610000000     0.734610000000     0.036880000000     0          
H1201    H      0.222190000000     0.722190000000     0.067100000000     0          
C1202    C      0.234610000000     0.234610000000     0.536880000000     0          
O1203    O      0.217800000000     0.217800000000     0.572100000000     0          
C1205    C      0.734610000000     0.265390000000     0.463120000000     0          
O1206    O      0.717800000000     0.282200000000     0.427900000000     0          
C1208    C      0.734610000000     0.765390000000     0.963120000000     0          
H1210    H      0.722190000000     0.777810000000     0.932900000000     0          
C1211    C      0.234610000000     0.265390000000     0.963120000000     0          
O1212    O      0.217800000000     0.282200000000     0.927900000000     0          
C1214    C      0.234610000000     0.765390000000     0.463120000000     0          
H1216    H      0.222190000000     0.777810000000     0.432900000000     0          
C1217    C      0.265390000000     0.734610000000     0.463120000000     0          
O1218    O      0.282200000000     0.717800000000     0.427900000000     0          
C1220    C      0.265390000000     0.234610000000     0.963120000000     0          
H1222    H      0.277750000000     0.222250000000     0.932850000000     0          
C1223    C      0.765390000000     0.734610000000     0.963120000000     0          
O1224    O      0.782200000000     0.717800000000     0.927900000000     0          
C1226    C      0.765390000000     0.234610000000     0.463120000000     0          
H1228    H      0.777750000000     0.222250000000     0.432850000000     0          
C1229    C      0.265390000000     0.265390000000     0.536880000000     0          
H1231    H      0.277810000000     0.277810000000     0.567100000000     0          
C1232    C      0.265390000000     0.765390000000     0.036880000000     0          
O1233    O      0.282200000000     0.782200000000     0.072100000000     0          
C1235    C      0.765390000000     0.265390000000     0.036880000000     0          
H1237    H      0.777810000000     0.277810000000     0.067100000000     0          
C1238    C      0.765390000000     0.765390000000     0.536880000000     0          
O1239    O      0.782200000000     0.782200000000     0.572100000000     0          
O701     O      0.962900000000     0.537100000000     0.962900000000     0          
O707     O      0.537100000000     0.962900000000     0.962900000000     0          
O727     O      0.962900000000     0.962900000000     0.537100000000     0          
O755     O      0.462900000000     0.962900000000     0.962900000000     0          
O757     O      0.962900000000     0.462900000000     0.962900000000     0          
O759     O      0.962900000000     0.962900000000     0.462900000000     0          


