data_ZOPLUN

_audit_creation_method RASPA-1.0
_audit_creation_date 2020-11-2
_audit_author_name 'Rocio Bueno-Perez'

_cell_length_a    32.67
_cell_length_b    32.67
_cell_length_c    32.67
_cell_angle_alpha 90
_cell_angle_beta  90
_cell_angle_gamma 90
_cell_volume      34869.6

_symmetry_cell_setting          triclinic
_symmetry_space_group_name_Hall 'P 1'
_symmetry_space_group_name_H-M  'P 1'
_symmetry_Int_Tables_number     1

_symmetry_equiv_pos_as_xyz 'x,y,z'

loop_
_atom_site_label
_atom_site_type_symbol
_atom_site_fract_x
_atom_site_fract_y
_atom_site_fract_z
_atom_site_charge
Zr1      Zr     0.500000000000     0.500000000000     0.575370000000     0          
Zr2      Zr     0.500000000000     0.000000000000     0.075370000000     0          
Zr3      Zr     0.000000000000     0.500000000000     0.075370000000     0          
Zr4      Zr     0.000000000000     0.000000000000     0.575370000000     0          
Zr5      Zr     0.500000000000     0.500000000000     0.424630000000     0          
Zr6      Zr     0.500000000000     0.000000000000     0.924630000000     0          
Zr7      Zr     0.000000000000     0.500000000000     0.924630000000     0          
Zr8      Zr     0.000000000000     0.000000000000     0.424630000000     0          
Zr9      Zr     0.575370000000     0.500000000000     0.500000000000     0          
Zr10     Zr     0.575370000000     0.000000000000     0.000000000000     0          
Zr11     Zr     0.075370000000     0.500000000000     0.000000000000     0          
Zr12     Zr     0.075370000000     0.000000000000     0.500000000000     0          
Zr13     Zr     0.424630000000     0.500000000000     0.500000000000     0          
Zr14     Zr     0.424630000000     0.000000000000     0.000000000000     0          
Zr15     Zr     0.924630000000     0.500000000000     0.000000000000     0          
Zr16     Zr     0.924630000000     0.000000000000     0.500000000000     0          
Zr17     Zr     0.500000000000     0.575370000000     0.500000000000     0          
Zr18     Zr     0.500000000000     0.075370000000     0.000000000000     0          
Zr19     Zr     0.000000000000     0.575370000000     0.000000000000     0          
Zr20     Zr     0.000000000000     0.075370000000     0.500000000000     0          
Zr21     Zr     0.500000000000     0.424630000000     0.500000000000     0          
Zr22     Zr     0.500000000000     0.924630000000     0.000000000000     0          
Zr23     Zr     0.000000000000     0.424630000000     0.000000000000     0          
Zr24     Zr     0.000000000000     0.924630000000     0.500000000000     0          
O25      O      0.557900000000     0.500000000000     0.609200000000     0          
C26      C      0.615400000000     0.500000000000     0.668000000000     0          
H27      H      0.581740000000     0.500000000000     0.677200000000     0          
C28      C      0.646200000000     0.500000000000     0.698500000000     0          
H29      H      0.637330000000     0.500000000000     0.732250000000     0          
O30      O      0.557900000000     0.000000000000     0.109200000000     0          
C31      C      0.615400000000     0.000000000000     0.168000000000     0          
H32      H      0.581740000000     0.000000000000     0.177200000000     0          
C33      C      0.646200000000     0.000000000000     0.198500000000     0          
H34      H      0.637330000000     0.000000000000     0.232250000000     0          
O35      O      0.057900000000     0.500000000000     0.109200000000     0          
C36      C      0.115400000000     0.500000000000     0.168000000000     0          
H37      H      0.081740000000     0.500000000000     0.177200000000     0          
C38      C      0.146200000000     0.500000000000     0.198500000000     0          
H39      H      0.137330000000     0.500000000000     0.232250000000     0          
O40      O      0.057900000000     0.000000000000     0.609200000000     0          
C41      C      0.115400000000     0.000000000000     0.668000000000     0          
H42      H      0.081740000000     0.000000000000     0.677200000000     0          
C43      C      0.146200000000     0.000000000000     0.698500000000     0          
H44      H      0.137330000000     0.000000000000     0.732250000000     0          
O45      O      0.442100000000     0.500000000000     0.609200000000     0          
C46      C      0.384600000000     0.500000000000     0.668000000000     0          
H47      H      0.418260000000     0.500000000000     0.677200000000     0          
C48      C      0.353800000000     0.500000000000     0.698500000000     0          
H49      H      0.362670000000     0.500000000000     0.732250000000     0          
O50      O      0.442100000000     0.000000000000     0.109200000000     0          
C51      C      0.384600000000     0.000000000000     0.168000000000     0          
H52      H      0.418260000000     0.000000000000     0.177200000000     0          
C53      C      0.353800000000     0.000000000000     0.198500000000     0          
H54      H      0.362670000000     0.000000000000     0.232250000000     0          
O55      O      0.942100000000     0.500000000000     0.109200000000     0          
C56      C      0.884600000000     0.500000000000     0.168000000000     0          
H57      H      0.918260000000     0.500000000000     0.177200000000     0          
C58      C      0.853800000000     0.500000000000     0.198500000000     0          
H59      H      0.862670000000     0.500000000000     0.232250000000     0          
O60      O      0.942100000000     0.000000000000     0.609200000000     0          
C61      C      0.884600000000     0.000000000000     0.668000000000     0          
H62      H      0.918260000000     0.000000000000     0.677200000000     0          
C63      C      0.853800000000     0.000000000000     0.698500000000     0          
H64      H      0.862670000000     0.000000000000     0.732250000000     0          
O65      O      0.442100000000     0.500000000000     0.390800000000     0          
C66      C      0.384600000000     0.500000000000     0.332000000000     0          
H67      H      0.418260000000     0.500000000000     0.322800000000     0          
C68      C      0.353800000000     0.500000000000     0.301500000000     0          
H69      H      0.362670000000     0.500000000000     0.267750000000     0          
O70      O      0.442100000000     0.000000000000     0.890800000000     0          
C71      C      0.384600000000     0.000000000000     0.832000000000     0          
H72      H      0.418260000000     0.000000000000     0.822800000000     0          
C73      C      0.353800000000     0.000000000000     0.801500000000     0          
H74      H      0.362670000000     0.000000000000     0.767750000000     0          
O75      O      0.942100000000     0.500000000000     0.890800000000     0          
C76      C      0.884600000000     0.500000000000     0.832000000000     0          
H77      H      0.918260000000     0.500000000000     0.822800000000     0          
C78      C      0.853800000000     0.500000000000     0.801500000000     0          
H79      H      0.862670000000     0.500000000000     0.767750000000     0          
O80      O      0.942100000000     0.000000000000     0.390800000000     0          
C81      C      0.884600000000     0.000000000000     0.332000000000     0          
H82      H      0.918260000000     0.000000000000     0.322800000000     0          
C83      C      0.853800000000     0.000000000000     0.301500000000     0          
H84      H      0.862670000000     0.000000000000     0.267750000000     0          
O85      O      0.557900000000     0.500000000000     0.390800000000     0          
C86      C      0.615400000000     0.500000000000     0.332000000000     0          
H87      H      0.581740000000     0.500000000000     0.322800000000     0          
C88      C      0.646200000000     0.500000000000     0.301500000000     0          
H89      H      0.637330000000     0.500000000000     0.267750000000     0          
O90      O      0.557900000000     0.000000000000     0.890800000000     0          
C91      C      0.615400000000     0.000000000000     0.832000000000     0          
H92      H      0.581740000000     0.000000000000     0.822800000000     0          
C93      C      0.646200000000     0.000000000000     0.801500000000     0          
H94      H      0.637330000000     0.000000000000     0.767750000000     0          
O95      O      0.057900000000     0.500000000000     0.890800000000     0          
C96      C      0.115400000000     0.500000000000     0.832000000000     0          
H97      H      0.081740000000     0.500000000000     0.822800000000     0          
C98      C      0.146200000000     0.500000000000     0.801500000000     0          
H99      H      0.137330000000     0.500000000000     0.767750000000     0          
O100     O      0.057900000000     0.000000000000     0.390800000000     0          
C101     C      0.115400000000     0.000000000000     0.332000000000     0          
H102     H      0.081740000000     0.000000000000     0.322800000000     0          
C103     C      0.146200000000     0.000000000000     0.301500000000     0          
H104     H      0.137330000000     0.000000000000     0.267750000000     0          
O105     O      0.609200000000     0.557900000000     0.500000000000     0          
C106     C      0.668000000000     0.615400000000     0.500000000000     0          
H107     H      0.677200000000     0.581740000000     0.500000000000     0          
C108     C      0.698500000000     0.646200000000     0.500000000000     0          
H109     H      0.732250000000     0.637330000000     0.500000000000     0          
O110     O      0.609200000000     0.057900000000     0.000000000000     0          
C111     C      0.668000000000     0.115400000000     0.000000000000     0          
H112     H      0.677200000000     0.081740000000     0.000000000000     0          
C113     C      0.698500000000     0.146200000000     0.000000000000     0          
H114     H      0.732250000000     0.137330000000     0.000000000000     0          
O115     O      0.109200000000     0.557900000000     0.000000000000     0          
C116     C      0.168000000000     0.615400000000     0.000000000000     0          
H117     H      0.177200000000     0.581740000000     0.000000000000     0          
C118     C      0.198500000000     0.646200000000     0.000000000000     0          
H119     H      0.232250000000     0.637330000000     0.000000000000     0          
O120     O      0.109200000000     0.057900000000     0.500000000000     0          
C121     C      0.168000000000     0.115400000000     0.500000000000     0          
H122     H      0.177200000000     0.081740000000     0.500000000000     0          
C123     C      0.198500000000     0.146200000000     0.500000000000     0          
H124     H      0.232250000000     0.137330000000     0.500000000000     0          
O125     O      0.609200000000     0.442100000000     0.500000000000     0          
C126     C      0.668000000000     0.384600000000     0.500000000000     0          
H127     H      0.677200000000     0.418260000000     0.500000000000     0          
C128     C      0.698500000000     0.353800000000     0.500000000000     0          
H129     H      0.732250000000     0.362670000000     0.500000000000     0          
O130     O      0.609200000000     0.942100000000     0.000000000000     0          
C131     C      0.668000000000     0.884600000000     0.000000000000     0          
H132     H      0.677200000000     0.918260000000     0.000000000000     0          
C133     C      0.698500000000     0.853800000000     0.000000000000     0          
H134     H      0.732250000000     0.862670000000     0.000000000000     0          
O135     O      0.109200000000     0.442100000000     0.000000000000     0          
C136     C      0.168000000000     0.384600000000     0.000000000000     0          
H137     H      0.177200000000     0.418260000000     0.000000000000     0          
C138     C      0.198500000000     0.353800000000     0.000000000000     0          
H139     H      0.232250000000     0.362670000000     0.000000000000     0          
O140     O      0.109200000000     0.942100000000     0.500000000000     0          
C141     C      0.168000000000     0.884600000000     0.500000000000     0          
H142     H      0.177200000000     0.918260000000     0.500000000000     0          
C143     C      0.198500000000     0.853800000000     0.500000000000     0          
H144     H      0.232250000000     0.862670000000     0.500000000000     0          
O145     O      0.390800000000     0.442100000000     0.500000000000     0          
C146     C      0.332000000000     0.384600000000     0.500000000000     0          
H147     H      0.322800000000     0.418260000000     0.500000000000     0          
C148     C      0.301500000000     0.353800000000     0.500000000000     0          
H149     H      0.267750000000     0.362670000000     0.500000000000     0          
O150     O      0.390800000000     0.942100000000     0.000000000000     0          
C151     C      0.332000000000     0.884600000000     0.000000000000     0          
H152     H      0.322800000000     0.918260000000     0.000000000000     0          
C153     C      0.301500000000     0.853800000000     0.000000000000     0          
H154     H      0.267750000000     0.862670000000     0.000000000000     0          
O155     O      0.890800000000     0.442100000000     0.000000000000     0          
C156     C      0.832000000000     0.384600000000     0.000000000000     0          
H157     H      0.822800000000     0.418260000000     0.000000000000     0          
C158     C      0.801500000000     0.353800000000     0.000000000000     0          
H159     H      0.767750000000     0.362670000000     0.000000000000     0          
O160     O      0.890800000000     0.942100000000     0.500000000000     0          
C161     C      0.832000000000     0.884600000000     0.500000000000     0          
H162     H      0.822800000000     0.918260000000     0.500000000000     0          
C163     C      0.801500000000     0.853800000000     0.500000000000     0          
H164     H      0.767750000000     0.862670000000     0.500000000000     0          
O165     O      0.390800000000     0.557900000000     0.500000000000     0          
C166     C      0.332000000000     0.615400000000     0.500000000000     0          
H167     H      0.322800000000     0.581740000000     0.500000000000     0          
C168     C      0.301500000000     0.646200000000     0.500000000000     0          
H169     H      0.267750000000     0.637330000000     0.500000000000     0          
O170     O      0.390800000000     0.057900000000     0.000000000000     0          
C171     C      0.332000000000     0.115400000000     0.000000000000     0          
H172     H      0.322800000000     0.081740000000     0.000000000000     0          
C173     C      0.301500000000     0.146200000000     0.000000000000     0          
H174     H      0.267750000000     0.137330000000     0.000000000000     0          
O175     O      0.890800000000     0.557900000000     0.000000000000     0          
C176     C      0.832000000000     0.615400000000     0.000000000000     0          
H177     H      0.822800000000     0.581740000000     0.000000000000     0          
C178     C      0.801500000000     0.646200000000     0.000000000000     0          
H179     H      0.767750000000     0.637330000000     0.000000000000     0          
O180     O      0.890800000000     0.057900000000     0.500000000000     0          
C181     C      0.832000000000     0.115400000000     0.500000000000     0          
H182     H      0.822800000000     0.081740000000     0.500000000000     0          
C183     C      0.801500000000     0.146200000000     0.500000000000     0          
H184     H      0.767750000000     0.137330000000     0.500000000000     0          
O185     O      0.500000000000     0.609200000000     0.557900000000     0          
C186     C      0.500000000000     0.668000000000     0.615400000000     0          
H187     H      0.500000000000     0.677200000000     0.581740000000     0          
C188     C      0.500000000000     0.698500000000     0.646200000000     0          
H189     H      0.500000000000     0.732250000000     0.637330000000     0          
O190     O      0.500000000000     0.109200000000     0.057900000000     0          
C191     C      0.500000000000     0.168000000000     0.115400000000     0          
H192     H      0.500000000000     0.177200000000     0.081740000000     0          
C193     C      0.500000000000     0.198500000000     0.146200000000     0          
H194     H      0.500000000000     0.232250000000     0.137330000000     0          
O195     O      0.000000000000     0.609200000000     0.057900000000     0          
C196     C      0.000000000000     0.668000000000     0.115400000000     0          
H197     H      0.000000000000     0.677200000000     0.081740000000     0          
C198     C      0.000000000000     0.698500000000     0.146200000000     0          
H199     H      0.000000000000     0.732250000000     0.137330000000     0          
O200     O      0.000000000000     0.109200000000     0.557900000000     0          
C201     C      0.000000000000     0.168000000000     0.615400000000     0          
H202     H      0.000000000000     0.177200000000     0.581740000000     0          
C203     C      0.000000000000     0.198500000000     0.646200000000     0          
H204     H      0.000000000000     0.232250000000     0.637330000000     0          
O205     O      0.500000000000     0.609200000000     0.442100000000     0          
C206     C      0.500000000000     0.668000000000     0.384600000000     0          
H207     H      0.500000000000     0.677200000000     0.418260000000     0          
C208     C      0.500000000000     0.698500000000     0.353800000000     0          
H209     H      0.500000000000     0.732250000000     0.362670000000     0          
O210     O      0.500000000000     0.109200000000     0.942100000000     0          
C211     C      0.500000000000     0.168000000000     0.884600000000     0          
H212     H      0.500000000000     0.177200000000     0.918260000000     0          
C213     C      0.500000000000     0.198500000000     0.853800000000     0          
H214     H      0.500000000000     0.232250000000     0.862670000000     0          
O215     O      0.000000000000     0.609200000000     0.942100000000     0          
C216     C      0.000000000000     0.668000000000     0.884600000000     0          
H217     H      0.000000000000     0.677200000000     0.918260000000     0          
C218     C      0.000000000000     0.698500000000     0.853800000000     0          
H219     H      0.000000000000     0.732250000000     0.862670000000     0          
O220     O      0.000000000000     0.109200000000     0.442100000000     0          
C221     C      0.000000000000     0.168000000000     0.384600000000     0          
H222     H      0.000000000000     0.177200000000     0.418260000000     0          
C223     C      0.000000000000     0.198500000000     0.353800000000     0          
H224     H      0.000000000000     0.232250000000     0.362670000000     0          
O225     O      0.500000000000     0.390800000000     0.442100000000     0          
C226     C      0.500000000000     0.332000000000     0.384600000000     0          
H227     H      0.500000000000     0.322800000000     0.418260000000     0          
C228     C      0.500000000000     0.301500000000     0.353800000000     0          
H229     H      0.500000000000     0.267750000000     0.362670000000     0          
O230     O      0.500000000000     0.890800000000     0.942100000000     0          
C231     C      0.500000000000     0.832000000000     0.884600000000     0          
H232     H      0.500000000000     0.822800000000     0.918260000000     0          
C233     C      0.500000000000     0.801500000000     0.853800000000     0          
H234     H      0.500000000000     0.767750000000     0.862670000000     0          
O235     O      0.000000000000     0.390800000000     0.942100000000     0          
C236     C      0.000000000000     0.332000000000     0.884600000000     0          
H237     H      0.000000000000     0.322800000000     0.918260000000     0          
C238     C      0.000000000000     0.301500000000     0.853800000000     0          
H239     H      0.000000000000     0.267750000000     0.862670000000     0          
O240     O      0.000000000000     0.890800000000     0.442100000000     0          
C241     C      0.000000000000     0.832000000000     0.384600000000     0          
H242     H      0.000000000000     0.822800000000     0.418260000000     0          
C243     C      0.000000000000     0.801500000000     0.353800000000     0          
H244     H      0.000000000000     0.767750000000     0.362670000000     0          
O245     O      0.500000000000     0.390800000000     0.557900000000     0          
C246     C      0.500000000000     0.332000000000     0.615400000000     0          
H247     H      0.500000000000     0.322800000000     0.581740000000     0          
C248     C      0.500000000000     0.301500000000     0.646200000000     0          
H249     H      0.500000000000     0.267750000000     0.637330000000     0          
O250     O      0.500000000000     0.890800000000     0.057900000000     0          
C251     C      0.500000000000     0.832000000000     0.115400000000     0          
H252     H      0.500000000000     0.822800000000     0.081740000000     0          
C253     C      0.500000000000     0.801500000000     0.146200000000     0          
H254     H      0.500000000000     0.767750000000     0.137330000000     0          
O255     O      0.000000000000     0.390800000000     0.057900000000     0          
C256     C      0.000000000000     0.332000000000     0.115400000000     0          
H257     H      0.000000000000     0.322800000000     0.081740000000     0          
C258     C      0.000000000000     0.301500000000     0.146200000000     0          
H259     H      0.000000000000     0.267750000000     0.137330000000     0          
O260     O      0.000000000000     0.890800000000     0.557900000000     0          
C261     C      0.000000000000     0.832000000000     0.615400000000     0          
H262     H      0.000000000000     0.822800000000     0.581740000000     0          
C263     C      0.000000000000     0.801500000000     0.646200000000     0          
H264     H      0.000000000000     0.767750000000     0.637330000000     0          
O265     O      0.500000000000     0.557900000000     0.390800000000     0          
C266     C      0.500000000000     0.615400000000     0.332000000000     0          
H267     H      0.500000000000     0.581740000000     0.322800000000     0          
C268     C      0.500000000000     0.646200000000     0.301500000000     0          
H269     H      0.500000000000     0.637330000000     0.267750000000     0          
O270     O      0.500000000000     0.057900000000     0.890800000000     0          
C271     C      0.500000000000     0.115400000000     0.832000000000     0          
H272     H      0.500000000000     0.081740000000     0.822800000000     0          
C273     C      0.500000000000     0.146200000000     0.801500000000     0          
H274     H      0.500000000000     0.137330000000     0.767750000000     0          
O275     O      0.000000000000     0.557900000000     0.890800000000     0          
C276     C      0.000000000000     0.615400000000     0.832000000000     0          
H277     H      0.000000000000     0.581740000000     0.822800000000     0          
C278     C      0.000000000000     0.646200000000     0.801500000000     0          
H279     H      0.000000000000     0.637330000000     0.767750000000     0          
O280     O      0.000000000000     0.057900000000     0.390800000000     0          
C281     C      0.000000000000     0.115400000000     0.332000000000     0          
H282     H      0.000000000000     0.081740000000     0.322800000000     0          
C283     C      0.000000000000     0.146200000000     0.301500000000     0          
H284     H      0.000000000000     0.137330000000     0.267750000000     0          
O285     O      0.500000000000     0.442100000000     0.390800000000     0          
C286     C      0.500000000000     0.384600000000     0.332000000000     0          
H287     H      0.500000000000     0.418260000000     0.322800000000     0          
C288     C      0.500000000000     0.353800000000     0.301500000000     0          
H289     H      0.500000000000     0.362670000000     0.267750000000     0          
O290     O      0.500000000000     0.942100000000     0.890800000000     0          
C291     C      0.500000000000     0.884600000000     0.832000000000     0          
H292     H      0.500000000000     0.918260000000     0.822800000000     0          
C293     C      0.500000000000     0.853800000000     0.801500000000     0          
H294     H      0.500000000000     0.862670000000     0.767750000000     0          
O295     O      0.000000000000     0.442100000000     0.890800000000     0          
C296     C      0.000000000000     0.384600000000     0.832000000000     0          
H297     H      0.000000000000     0.418260000000     0.822800000000     0          
C298     C      0.000000000000     0.353800000000     0.801500000000     0          
H299     H      0.000000000000     0.362670000000     0.767750000000     0          
O300     O      0.000000000000     0.942100000000     0.390800000000     0          
C301     C      0.000000000000     0.884600000000     0.332000000000     0          
H302     H      0.000000000000     0.918260000000     0.322800000000     0          
C303     C      0.000000000000     0.853800000000     0.301500000000     0          
H304     H      0.000000000000     0.862670000000     0.267750000000     0          
O305     O      0.500000000000     0.442100000000     0.609200000000     0          
C306     C      0.500000000000     0.384600000000     0.668000000000     0          
H307     H      0.500000000000     0.418260000000     0.677200000000     0          
C308     C      0.500000000000     0.353800000000     0.698500000000     0          
H309     H      0.500000000000     0.362670000000     0.732250000000     0          
O310     O      0.500000000000     0.942100000000     0.109200000000     0          
C311     C      0.500000000000     0.884600000000     0.168000000000     0          
H312     H      0.500000000000     0.918260000000     0.177200000000     0          
C313     C      0.500000000000     0.853800000000     0.198500000000     0          
H314     H      0.500000000000     0.862670000000     0.232250000000     0          
O315     O      0.000000000000     0.442100000000     0.109200000000     0          
C316     C      0.000000000000     0.384600000000     0.168000000000     0          
H317     H      0.000000000000     0.418260000000     0.177200000000     0          
C318     C      0.000000000000     0.353800000000     0.198500000000     0          
H319     H      0.000000000000     0.362670000000     0.232250000000     0          
O320     O      0.000000000000     0.942100000000     0.609200000000     0          
C321     C      0.000000000000     0.884600000000     0.668000000000     0          
H322     H      0.000000000000     0.918260000000     0.677200000000     0          
C323     C      0.000000000000     0.853800000000     0.698500000000     0          
H324     H      0.000000000000     0.862670000000     0.732250000000     0          
O325     O      0.500000000000     0.557900000000     0.609200000000     0          
C326     C      0.500000000000     0.615400000000     0.668000000000     0          
H327     H      0.500000000000     0.581740000000     0.677200000000     0          
C328     C      0.500000000000     0.646200000000     0.698500000000     0          
H329     H      0.500000000000     0.637330000000     0.732250000000     0          
O330     O      0.500000000000     0.057900000000     0.109200000000     0          
C331     C      0.500000000000     0.115400000000     0.168000000000     0          
H332     H      0.500000000000     0.081740000000     0.177200000000     0          
C333     C      0.500000000000     0.146200000000     0.198500000000     0          
H334     H      0.500000000000     0.137330000000     0.232250000000     0          
O335     O      0.000000000000     0.557900000000     0.109200000000     0          
C336     C      0.000000000000     0.615400000000     0.168000000000     0          
H337     H      0.000000000000     0.581740000000     0.177200000000     0          
C338     C      0.000000000000     0.646200000000     0.198500000000     0          
H339     H      0.000000000000     0.637330000000     0.232250000000     0          
O340     O      0.000000000000     0.057900000000     0.609200000000     0          
C341     C      0.000000000000     0.115400000000     0.668000000000     0          
H342     H      0.000000000000     0.081740000000     0.677200000000     0          
C343     C      0.000000000000     0.146200000000     0.698500000000     0          
H344     H      0.000000000000     0.137330000000     0.732250000000     0          
O345     O      0.557900000000     0.609200000000     0.500000000000     0          
C346     C      0.615400000000     0.668000000000     0.500000000000     0          
H347     H      0.581740000000     0.677200000000     0.500000000000     0          
C348     C      0.646200000000     0.698500000000     0.500000000000     0          
H349     H      0.637330000000     0.732250000000     0.500000000000     0          
O350     O      0.557900000000     0.109200000000     0.000000000000     0          
C351     C      0.615400000000     0.168000000000     0.000000000000     0          
H352     H      0.581740000000     0.177200000000     0.000000000000     0          
C353     C      0.646200000000     0.198500000000     0.000000000000     0          
H354     H      0.637330000000     0.232250000000     0.000000000000     0          
O355     O      0.057900000000     0.609200000000     0.000000000000     0          
C356     C      0.115400000000     0.668000000000     0.000000000000     0          
H357     H      0.081740000000     0.677200000000     0.000000000000     0          
C358     C      0.146200000000     0.698500000000     0.000000000000     0          
H359     H      0.137330000000     0.732250000000     0.000000000000     0          
O360     O      0.057900000000     0.109200000000     0.500000000000     0          
C361     C      0.115400000000     0.168000000000     0.500000000000     0          
H362     H      0.081740000000     0.177200000000     0.500000000000     0          
C363     C      0.146200000000     0.198500000000     0.500000000000     0          
H364     H      0.137330000000     0.232250000000     0.500000000000     0          
O365     O      0.442100000000     0.609200000000     0.500000000000     0          
C366     C      0.384600000000     0.668000000000     0.500000000000     0          
H367     H      0.418260000000     0.677200000000     0.500000000000     0          
C368     C      0.353800000000     0.698500000000     0.500000000000     0          
H369     H      0.362670000000     0.732250000000     0.500000000000     0          
O370     O      0.442100000000     0.109200000000     0.000000000000     0          
C371     C      0.384600000000     0.168000000000     0.000000000000     0          
H372     H      0.418260000000     0.177200000000     0.000000000000     0          
C373     C      0.353800000000     0.198500000000     0.000000000000     0          
H374     H      0.362670000000     0.232250000000     0.000000000000     0          
O375     O      0.942100000000     0.609200000000     0.000000000000     0          
C376     C      0.884600000000     0.668000000000     0.000000000000     0          
H377     H      0.918260000000     0.677200000000     0.000000000000     0          
C378     C      0.853800000000     0.698500000000     0.000000000000     0          
H379     H      0.862670000000     0.732250000000     0.000000000000     0          
O380     O      0.942100000000     0.109200000000     0.500000000000     0          
C381     C      0.884600000000     0.168000000000     0.500000000000     0          
H382     H      0.918260000000     0.177200000000     0.500000000000     0          
C383     C      0.853800000000     0.198500000000     0.500000000000     0          
H384     H      0.862670000000     0.232250000000     0.500000000000     0          
O385     O      0.442100000000     0.390800000000     0.500000000000     0          
C386     C      0.384600000000     0.332000000000     0.500000000000     0          
H387     H      0.418260000000     0.322800000000     0.500000000000     0          
C388     C      0.353800000000     0.301500000000     0.500000000000     0          
H389     H      0.362670000000     0.267750000000     0.500000000000     0          
O390     O      0.442100000000     0.890800000000     0.000000000000     0          
C391     C      0.384600000000     0.832000000000     0.000000000000     0          
H392     H      0.418260000000     0.822800000000     0.000000000000     0          
C393     C      0.353800000000     0.801500000000     0.000000000000     0          
H394     H      0.362670000000     0.767750000000     0.000000000000     0          
O395     O      0.942100000000     0.390800000000     0.000000000000     0          
C396     C      0.884600000000     0.332000000000     0.000000000000     0          
H397     H      0.918260000000     0.322800000000     0.000000000000     0          
C398     C      0.853800000000     0.301500000000     0.000000000000     0          
H399     H      0.862670000000     0.267750000000     0.000000000000     0          
O400     O      0.942100000000     0.890800000000     0.500000000000     0          
C401     C      0.884600000000     0.832000000000     0.500000000000     0          
H402     H      0.918260000000     0.822800000000     0.500000000000     0          
C403     C      0.853800000000     0.801500000000     0.500000000000     0          
H404     H      0.862670000000     0.767750000000     0.500000000000     0          
O405     O      0.557900000000     0.390800000000     0.500000000000     0          
C406     C      0.615400000000     0.332000000000     0.500000000000     0          
H407     H      0.581740000000     0.322800000000     0.500000000000     0          
C408     C      0.646200000000     0.301500000000     0.500000000000     0          
H409     H      0.637330000000     0.267750000000     0.500000000000     0          
O410     O      0.557900000000     0.890800000000     0.000000000000     0          
C411     C      0.615400000000     0.832000000000     0.000000000000     0          
H412     H      0.581740000000     0.822800000000     0.000000000000     0          
C413     C      0.646200000000     0.801500000000     0.000000000000     0          
H414     H      0.637330000000     0.767750000000     0.000000000000     0          
O415     O      0.057900000000     0.390800000000     0.000000000000     0          
C416     C      0.115400000000     0.332000000000     0.000000000000     0          
H417     H      0.081740000000     0.322800000000     0.000000000000     0          
C418     C      0.146200000000     0.301500000000     0.000000000000     0          
H419     H      0.137330000000     0.267750000000     0.000000000000     0          
O420     O      0.057900000000     0.890800000000     0.500000000000     0          
C421     C      0.115400000000     0.832000000000     0.500000000000     0          
H422     H      0.081740000000     0.822800000000     0.500000000000     0          
C423     C      0.146200000000     0.801500000000     0.500000000000     0          
H424     H      0.137330000000     0.767750000000     0.500000000000     0          
O425     O      0.609200000000     0.500000000000     0.442100000000     0          
C426     C      0.668000000000     0.500000000000     0.384600000000     0          
H427     H      0.677200000000     0.500000000000     0.418260000000     0          
C428     C      0.698500000000     0.500000000000     0.353800000000     0          
H429     H      0.732250000000     0.500000000000     0.362670000000     0          
O430     O      0.609200000000     0.000000000000     0.942100000000     0          
C431     C      0.668000000000     0.000000000000     0.884600000000     0          
H432     H      0.677200000000     0.000000000000     0.918260000000     0          
C433     C      0.698500000000     0.000000000000     0.853800000000     0          
H434     H      0.732250000000     0.000000000000     0.862670000000     0          
O435     O      0.109200000000     0.500000000000     0.942100000000     0          
C436     C      0.168000000000     0.500000000000     0.884600000000     0          
H437     H      0.177200000000     0.500000000000     0.918260000000     0          
C438     C      0.198500000000     0.500000000000     0.853800000000     0          
H439     H      0.232250000000     0.500000000000     0.862670000000     0          
O440     O      0.109200000000     0.000000000000     0.442100000000     0          
C441     C      0.168000000000     0.000000000000     0.384600000000     0          
H442     H      0.177200000000     0.000000000000     0.418260000000     0          
C443     C      0.198500000000     0.000000000000     0.353800000000     0          
H444     H      0.232250000000     0.000000000000     0.362670000000     0          
O445     O      0.609200000000     0.500000000000     0.557900000000     0          
C446     C      0.668000000000     0.500000000000     0.615400000000     0          
H447     H      0.677200000000     0.500000000000     0.581740000000     0          
C448     C      0.698500000000     0.500000000000     0.646200000000     0          
H449     H      0.732250000000     0.500000000000     0.637330000000     0          
O450     O      0.609200000000     0.000000000000     0.057900000000     0          
C451     C      0.668000000000     0.000000000000     0.115400000000     0          
H452     H      0.677200000000     0.000000000000     0.081740000000     0          
C453     C      0.698500000000     0.000000000000     0.146200000000     0          
H454     H      0.732250000000     0.000000000000     0.137330000000     0          
O455     O      0.109200000000     0.500000000000     0.057900000000     0          
C456     C      0.168000000000     0.500000000000     0.115400000000     0          
H457     H      0.177200000000     0.500000000000     0.081740000000     0          
C458     C      0.198500000000     0.500000000000     0.146200000000     0          
H459     H      0.232250000000     0.500000000000     0.137330000000     0          
O460     O      0.109200000000     0.000000000000     0.557900000000     0          
C461     C      0.168000000000     0.000000000000     0.615400000000     0          
H462     H      0.177200000000     0.000000000000     0.581740000000     0          
C463     C      0.198500000000     0.000000000000     0.646200000000     0          
H464     H      0.232250000000     0.000000000000     0.637330000000     0          
O465     O      0.390800000000     0.500000000000     0.557900000000     0          
C466     C      0.332000000000     0.500000000000     0.615400000000     0          
H467     H      0.322800000000     0.500000000000     0.581740000000     0          
C468     C      0.301500000000     0.500000000000     0.646200000000     0          
H469     H      0.267750000000     0.500000000000     0.637330000000     0          
O470     O      0.390800000000     0.000000000000     0.057900000000     0          
C471     C      0.332000000000     0.000000000000     0.115400000000     0          
H472     H      0.322800000000     0.000000000000     0.081740000000     0          
C473     C      0.301500000000     0.000000000000     0.146200000000     0          
H474     H      0.267750000000     0.000000000000     0.137330000000     0          
O475     O      0.890800000000     0.500000000000     0.057900000000     0          
C476     C      0.832000000000     0.500000000000     0.115400000000     0          
H477     H      0.822800000000     0.500000000000     0.081740000000     0          
C478     C      0.801500000000     0.500000000000     0.146200000000     0          
H479     H      0.767750000000     0.500000000000     0.137330000000     0          
O480     O      0.890800000000     0.000000000000     0.557900000000     0          
C481     C      0.832000000000     0.000000000000     0.615400000000     0          
H482     H      0.822800000000     0.000000000000     0.581740000000     0          
C483     C      0.801500000000     0.000000000000     0.646200000000     0          
H484     H      0.767750000000     0.000000000000     0.637330000000     0          
O485     O      0.390800000000     0.500000000000     0.442100000000     0          
C486     C      0.332000000000     0.500000000000     0.384600000000     0          
H487     H      0.322800000000     0.500000000000     0.418260000000     0          
C488     C      0.301500000000     0.500000000000     0.353800000000     0          
H489     H      0.267750000000     0.500000000000     0.362670000000     0          
O490     O      0.390800000000     0.000000000000     0.942100000000     0          
C491     C      0.332000000000     0.000000000000     0.884600000000     0          
H492     H      0.322800000000     0.000000000000     0.918260000000     0          
C493     C      0.301500000000     0.000000000000     0.853800000000     0          
H494     H      0.267750000000     0.000000000000     0.862670000000     0          
O495     O      0.890800000000     0.500000000000     0.942100000000     0          
C496     C      0.832000000000     0.500000000000     0.884600000000     0          
H497     H      0.822800000000     0.500000000000     0.918260000000     0          
C498     C      0.801500000000     0.500000000000     0.853800000000     0          
H499     H      0.767750000000     0.500000000000     0.862670000000     0          
O500     O      0.890800000000     0.000000000000     0.442100000000     0          
C501     C      0.832000000000     0.000000000000     0.384600000000     0          
H502     H      0.822800000000     0.000000000000     0.418260000000     0          
C503     C      0.801500000000     0.000000000000     0.353800000000     0          
H504     H      0.767750000000     0.000000000000     0.362670000000     0          
O505     O      0.463360000000     0.463360000000     0.536640000000     0          
O507     O      0.463360000000     0.963360000000     0.036640000000     0          
O509     O      0.963360000000     0.463360000000     0.036640000000     0          
O513     O      0.536640000000     0.536640000000     0.536640000000     0          
O515     O      0.536640000000     0.036640000000     0.036640000000     0          
O517     O      0.036640000000     0.536640000000     0.036640000000     0          
O519     O      0.036640000000     0.036640000000     0.536640000000     0          
O521     O      0.536640000000     0.463360000000     0.463360000000     0          
O525     O      0.036640000000     0.463360000000     0.963360000000     0          
O527     O      0.036640000000     0.963360000000     0.463360000000     0          
O529     O      0.463360000000     0.536640000000     0.463360000000     0          
O531     O      0.463360000000     0.036640000000     0.963360000000     0          
O535     O      0.963360000000     0.036640000000     0.463360000000     0          
O537     O      0.463360000000     0.463360000000     0.463360000000     0          
O545     O      0.536640000000     0.536640000000     0.463360000000     0          
O547     O      0.536640000000     0.036640000000     0.963360000000     0          
O549     O      0.036640000000     0.536640000000     0.963360000000     0          
O551     O      0.036640000000     0.036640000000     0.463360000000     0          
O553     O      0.463360000000     0.536640000000     0.536640000000     0          
O555     O      0.463360000000     0.036640000000     0.036640000000     0          
O557     O      0.963360000000     0.536640000000     0.036640000000     0          
O559     O      0.963360000000     0.036640000000     0.536640000000     0          
O561     O      0.536640000000     0.463360000000     0.536640000000     0          
O563     O      0.536640000000     0.963360000000     0.036640000000     0          
O565     O      0.036640000000     0.463360000000     0.036640000000     0          
O567     O      0.036640000000     0.963360000000     0.536640000000     0          
C569     C      0.595000000000     0.500000000000     0.595000000000     0          
C570     C      0.626900000000     0.500000000000     0.626900000000     0          
C571     C      0.687400000000     0.500000000000     0.687400000000     0          
C572     C      0.719730000000     0.500000000000     0.719730000000     0          
C573     C      0.595000000000     0.000000000000     0.095000000000     0          
C574     C      0.626900000000     0.000000000000     0.126900000000     0          
C575     C      0.687400000000     0.000000000000     0.187400000000     0          
C576     C      0.719730000000     0.000000000000     0.219730000000     0          
C577     C      0.095000000000     0.500000000000     0.095000000000     0          
C578     C      0.126900000000     0.500000000000     0.126900000000     0          
C579     C      0.187400000000     0.500000000000     0.187400000000     0          
C580     C      0.219730000000     0.500000000000     0.219730000000     0          
C581     C      0.095000000000     0.000000000000     0.595000000000     0          
C582     C      0.126900000000     0.000000000000     0.626900000000     0          
C583     C      0.187400000000     0.000000000000     0.687400000000     0          
C584     C      0.219730000000     0.000000000000     0.719730000000     0          
C585     C      0.405000000000     0.500000000000     0.595000000000     0          
C586     C      0.373100000000     0.500000000000     0.626900000000     0          
C587     C      0.312600000000     0.500000000000     0.687400000000     0          
C588     C      0.280270000000     0.500000000000     0.719730000000     0          
C589     C      0.405000000000     0.000000000000     0.095000000000     0          
C590     C      0.373100000000     0.000000000000     0.126900000000     0          
C591     C      0.312600000000     0.000000000000     0.187400000000     0          
C592     C      0.280270000000     0.000000000000     0.219730000000     0          
C593     C      0.905000000000     0.500000000000     0.095000000000     0          
C594     C      0.873100000000     0.500000000000     0.126900000000     0          
C595     C      0.812600000000     0.500000000000     0.187400000000     0          
C596     C      0.780270000000     0.500000000000     0.219730000000     0          
C597     C      0.905000000000     0.000000000000     0.595000000000     0          
C598     C      0.873100000000     0.000000000000     0.626900000000     0          
C599     C      0.812600000000     0.000000000000     0.687400000000     0          
C600     C      0.780270000000     0.000000000000     0.719730000000     0          
C601     C      0.405000000000     0.500000000000     0.405000000000     0          
C602     C      0.373100000000     0.500000000000     0.373100000000     0          
C603     C      0.312600000000     0.500000000000     0.312600000000     0          
C604     C      0.280270000000     0.500000000000     0.280270000000     0          
C605     C      0.405000000000     0.000000000000     0.905000000000     0          
C606     C      0.373100000000     0.000000000000     0.873100000000     0          
C607     C      0.312600000000     0.000000000000     0.812600000000     0          
C608     C      0.280270000000     0.000000000000     0.780270000000     0          
C609     C      0.905000000000     0.500000000000     0.905000000000     0          
C610     C      0.873100000000     0.500000000000     0.873100000000     0          
C611     C      0.812600000000     0.500000000000     0.812600000000     0          
C612     C      0.780270000000     0.500000000000     0.780270000000     0          
C613     C      0.905000000000     0.000000000000     0.405000000000     0          
C614     C      0.873100000000     0.000000000000     0.373100000000     0          
C615     C      0.812600000000     0.000000000000     0.312600000000     0          
C616     C      0.780270000000     0.000000000000     0.280270000000     0          
C617     C      0.595000000000     0.500000000000     0.405000000000     0          
C618     C      0.626900000000     0.500000000000     0.373100000000     0          
C619     C      0.687400000000     0.500000000000     0.312600000000     0          
C620     C      0.719730000000     0.500000000000     0.280270000000     0          
C621     C      0.595000000000     0.000000000000     0.905000000000     0          
C622     C      0.626900000000     0.000000000000     0.873100000000     0          
C623     C      0.687400000000     0.000000000000     0.812600000000     0          
C624     C      0.719730000000     0.000000000000     0.780270000000     0          
C625     C      0.095000000000     0.500000000000     0.905000000000     0          
C626     C      0.126900000000     0.500000000000     0.873100000000     0          
C627     C      0.187400000000     0.500000000000     0.812600000000     0          
C628     C      0.219730000000     0.500000000000     0.780270000000     0          
C629     C      0.095000000000     0.000000000000     0.405000000000     0          
C630     C      0.126900000000     0.000000000000     0.373100000000     0          
C631     C      0.187400000000     0.000000000000     0.312600000000     0          
C632     C      0.219730000000     0.000000000000     0.280270000000     0          
C633     C      0.595000000000     0.595000000000     0.500000000000     0          
C634     C      0.626900000000     0.626900000000     0.500000000000     0          
C635     C      0.687400000000     0.687400000000     0.500000000000     0          
C636     C      0.719730000000     0.719730000000     0.500000000000     0          
C637     C      0.595000000000     0.095000000000     0.000000000000     0          
C638     C      0.626900000000     0.126900000000     0.000000000000     0          
C639     C      0.687400000000     0.187400000000     0.000000000000     0          
C640     C      0.719730000000     0.219730000000     0.000000000000     0          
C641     C      0.095000000000     0.595000000000     0.000000000000     0          
C642     C      0.126900000000     0.626900000000     0.000000000000     0          
C643     C      0.187400000000     0.687400000000     0.000000000000     0          
C644     C      0.219730000000     0.719730000000     0.000000000000     0          
C645     C      0.095000000000     0.095000000000     0.500000000000     0          
C646     C      0.126900000000     0.126900000000     0.500000000000     0          
C647     C      0.187400000000     0.187400000000     0.500000000000     0          
C648     C      0.219730000000     0.219730000000     0.500000000000     0          
C649     C      0.595000000000     0.405000000000     0.500000000000     0          
C650     C      0.626900000000     0.373100000000     0.500000000000     0          
C651     C      0.687400000000     0.312600000000     0.500000000000     0          
C652     C      0.719730000000     0.280270000000     0.500000000000     0          
C653     C      0.595000000000     0.905000000000     0.000000000000     0          
C654     C      0.626900000000     0.873100000000     0.000000000000     0          
C655     C      0.687400000000     0.812600000000     0.000000000000     0          
C656     C      0.719730000000     0.780270000000     0.000000000000     0          
C657     C      0.095000000000     0.405000000000     0.000000000000     0          
C658     C      0.126900000000     0.373100000000     0.000000000000     0          
C659     C      0.187400000000     0.312600000000     0.000000000000     0          
C660     C      0.219730000000     0.280270000000     0.000000000000     0          
C661     C      0.095000000000     0.905000000000     0.500000000000     0          
C662     C      0.126900000000     0.873100000000     0.500000000000     0          
C663     C      0.187400000000     0.812600000000     0.500000000000     0          
C664     C      0.219730000000     0.780270000000     0.500000000000     0          
C665     C      0.405000000000     0.405000000000     0.500000000000     0          
C666     C      0.373100000000     0.373100000000     0.500000000000     0          
C667     C      0.312600000000     0.312600000000     0.500000000000     0          
C668     C      0.280270000000     0.280270000000     0.500000000000     0          
C669     C      0.405000000000     0.905000000000     0.000000000000     0          
C670     C      0.373100000000     0.873100000000     0.000000000000     0          
C671     C      0.312600000000     0.812600000000     0.000000000000     0          
C672     C      0.280270000000     0.780270000000     0.000000000000     0          
C673     C      0.905000000000     0.405000000000     0.000000000000     0          
C674     C      0.873100000000     0.373100000000     0.000000000000     0          
C675     C      0.812600000000     0.312600000000     0.000000000000     0          
C676     C      0.780270000000     0.280270000000     0.000000000000     0          
C677     C      0.905000000000     0.905000000000     0.500000000000     0          
C678     C      0.873100000000     0.873100000000     0.500000000000     0          
C679     C      0.812600000000     0.812600000000     0.500000000000     0          
C680     C      0.780270000000     0.780270000000     0.500000000000     0          
C681     C      0.405000000000     0.595000000000     0.500000000000     0          
C682     C      0.373100000000     0.626900000000     0.500000000000     0          
C683     C      0.312600000000     0.687400000000     0.500000000000     0          
C684     C      0.280270000000     0.719730000000     0.500000000000     0          
C685     C      0.405000000000     0.095000000000     0.000000000000     0          
C686     C      0.373100000000     0.126900000000     0.000000000000     0          
C687     C      0.312600000000     0.187400000000     0.000000000000     0          
C688     C      0.280270000000     0.219730000000     0.000000000000     0          
C689     C      0.905000000000     0.595000000000     0.000000000000     0          
C690     C      0.873100000000     0.626900000000     0.000000000000     0          
C691     C      0.812600000000     0.687400000000     0.000000000000     0          
C692     C      0.780270000000     0.719730000000     0.000000000000     0          
C693     C      0.905000000000     0.095000000000     0.500000000000     0          
C694     C      0.873100000000     0.126900000000     0.500000000000     0          
C695     C      0.812600000000     0.187400000000     0.500000000000     0          
C696     C      0.780270000000     0.219730000000     0.500000000000     0          
C697     C      0.500000000000     0.595000000000     0.595000000000     0          
C698     C      0.500000000000     0.626900000000     0.626900000000     0          
C699     C      0.500000000000     0.687400000000     0.687400000000     0          
C700     C      0.500000000000     0.719730000000     0.719730000000     0          
C701     C      0.500000000000     0.095000000000     0.095000000000     0          
C702     C      0.500000000000     0.126900000000     0.126900000000     0          
C703     C      0.500000000000     0.187400000000     0.187400000000     0          
C704     C      0.500000000000     0.219730000000     0.219730000000     0          
C705     C      0.000000000000     0.595000000000     0.095000000000     0          
C706     C      0.000000000000     0.626900000000     0.126900000000     0          
C707     C      0.000000000000     0.687400000000     0.187400000000     0          
C708     C      0.000000000000     0.719730000000     0.219730000000     0          
C709     C      0.000000000000     0.095000000000     0.595000000000     0          
C710     C      0.000000000000     0.126900000000     0.626900000000     0          
C711     C      0.000000000000     0.187400000000     0.687400000000     0          
C712     C      0.000000000000     0.219730000000     0.719730000000     0          
C713     C      0.500000000000     0.595000000000     0.405000000000     0          
C714     C      0.500000000000     0.626900000000     0.373100000000     0          
C715     C      0.500000000000     0.687400000000     0.312600000000     0          
C716     C      0.500000000000     0.719730000000     0.280270000000     0          
C717     C      0.500000000000     0.095000000000     0.905000000000     0          
C718     C      0.500000000000     0.126900000000     0.873100000000     0          
C719     C      0.500000000000     0.187400000000     0.812600000000     0          
C720     C      0.500000000000     0.219730000000     0.780270000000     0          
C721     C      0.000000000000     0.595000000000     0.905000000000     0          
C722     C      0.000000000000     0.626900000000     0.873100000000     0          
C723     C      0.000000000000     0.687400000000     0.812600000000     0          
C724     C      0.000000000000     0.719730000000     0.780270000000     0          
C725     C      0.000000000000     0.095000000000     0.405000000000     0          
C726     C      0.000000000000     0.126900000000     0.373100000000     0          
C727     C      0.000000000000     0.187400000000     0.312600000000     0          
C728     C      0.000000000000     0.219730000000     0.280270000000     0          
C729     C      0.500000000000     0.405000000000     0.405000000000     0          
C730     C      0.500000000000     0.373100000000     0.373100000000     0          
C731     C      0.500000000000     0.312600000000     0.312600000000     0          
C732     C      0.500000000000     0.280270000000     0.280270000000     0          
C733     C      0.500000000000     0.905000000000     0.905000000000     0          
C734     C      0.500000000000     0.873100000000     0.873100000000     0          
C735     C      0.500000000000     0.812600000000     0.812600000000     0          
C736     C      0.500000000000     0.780270000000     0.780270000000     0          
C737     C      0.000000000000     0.405000000000     0.905000000000     0          
C738     C      0.000000000000     0.373100000000     0.873100000000     0          
C739     C      0.000000000000     0.312600000000     0.812600000000     0          
C740     C      0.000000000000     0.280270000000     0.780270000000     0          
C741     C      0.000000000000     0.905000000000     0.405000000000     0          
C742     C      0.000000000000     0.873100000000     0.373100000000     0          
C743     C      0.000000000000     0.812600000000     0.312600000000     0          
C744     C      0.000000000000     0.780270000000     0.280270000000     0          
C745     C      0.500000000000     0.405000000000     0.595000000000     0          
C746     C      0.500000000000     0.373100000000     0.626900000000     0          
C747     C      0.500000000000     0.312600000000     0.687400000000     0          
C748     C      0.500000000000     0.280270000000     0.719730000000     0          
C749     C      0.500000000000     0.905000000000     0.095000000000     0          
C750     C      0.500000000000     0.873100000000     0.126900000000     0          
C751     C      0.500000000000     0.812600000000     0.187400000000     0          
C752     C      0.500000000000     0.780270000000     0.219730000000     0          
C753     C      0.000000000000     0.405000000000     0.095000000000     0          
C754     C      0.000000000000     0.373100000000     0.126900000000     0          
C755     C      0.000000000000     0.312600000000     0.187400000000     0          
C756     C      0.000000000000     0.280270000000     0.219730000000     0          
C757     C      0.000000000000     0.905000000000     0.595000000000     0          
C758     C      0.000000000000     0.873100000000     0.626900000000     0          
C759     C      0.000000000000     0.812600000000     0.687400000000     0          
C760     C      0.000000000000     0.780270000000     0.719730000000     0          
C761     C      0.734800000000     0.463220000000     0.734800000000     0          
H763     H      0.722500000000     0.432970000000     0.722500000000     0          
C764     C      0.734800000000     0.963220000000     0.234800000000     0          
H766     H      0.722500000000     0.932970000000     0.222500000000     0          
C767     C      0.234800000000     0.463220000000     0.234800000000     0          
O768     O      0.222000000000     0.430300000000     0.222000000000     0          
C770     C      0.234800000000     0.963220000000     0.734800000000     0          
H772     H      0.222500000000     0.932970000000     0.722500000000     0          
C773     C      0.265200000000     0.536780000000     0.734800000000     0          
H775     H      0.277500000000     0.567030000000     0.722500000000     0          
C776     C      0.265200000000     0.036780000000     0.234800000000     0          
O777     O      0.278000000000     0.069700000000     0.222000000000     0          
C779     C      0.765200000000     0.536780000000     0.234800000000     0          
O780     O      0.778000000000     0.569700000000     0.222000000000     0          
C782     C      0.765200000000     0.036780000000     0.734800000000     0          
O783     O      0.778000000000     0.069700000000     0.722000000000     0          
C785     C      0.265200000000     0.463220000000     0.265200000000     0          
H787     H      0.277540000000     0.433000000000     0.277540000000     0          
C788     C      0.265200000000     0.963220000000     0.765200000000     0          
O789     O      0.278000000000     0.930300000000     0.778000000000     0          
C791     C      0.765200000000     0.463220000000     0.765200000000     0          
O792     O      0.778000000000     0.430300000000     0.778000000000     0          
C794     C      0.765200000000     0.963220000000     0.265200000000     0          
O795     O      0.778000000000     0.930300000000     0.278000000000     0          
C797     C      0.734800000000     0.536780000000     0.265200000000     0          
H799     H      0.722500000000     0.567030000000     0.277500000000     0          
C800     C      0.734800000000     0.036780000000     0.765200000000     0          
H802     H      0.722500000000     0.067030000000     0.777500000000     0          
C803     C      0.234800000000     0.536780000000     0.765200000000     0          
O804     O      0.222000000000     0.569700000000     0.778000000000     0          
C806     C      0.234800000000     0.036780000000     0.265200000000     0          
H808     H      0.222500000000     0.067030000000     0.277500000000     0          
C809     C      0.734800000000     0.734800000000     0.463220000000     0          
O810     O      0.722000000000     0.722000000000     0.430300000000     0          
C812     C      0.734800000000     0.234800000000     0.963220000000     0          
O813     O      0.722000000000     0.222000000000     0.930300000000     0          
C815     C      0.234800000000     0.734800000000     0.963220000000     0          
H817     H      0.222500000000     0.722500000000     0.932970000000     0          
C818     C      0.234800000000     0.234800000000     0.463220000000     0          
H820     H      0.222500000000     0.222500000000     0.432970000000     0          
C821     C      0.734800000000     0.265200000000     0.536780000000     0          
H823     H      0.722500000000     0.277500000000     0.567030000000     0          
C824     C      0.734800000000     0.765200000000     0.036780000000     0          
H826     H      0.722500000000     0.777500000000     0.067030000000     0          
C827     C      0.234800000000     0.265200000000     0.036780000000     0          
O828     O      0.222000000000     0.278000000000     0.069700000000     0          
C830     C      0.234800000000     0.765200000000     0.536780000000     0          
O831     O      0.222000000000     0.778000000000     0.569700000000     0          
C833     C      0.265200000000     0.265200000000     0.463220000000     0          
O834     O      0.278000000000     0.278000000000     0.430300000000     0          
C836     C      0.265200000000     0.765200000000     0.963220000000     0          
O837     O      0.278000000000     0.778000000000     0.930300000000     0          
C839     C      0.765200000000     0.265200000000     0.963220000000     0          
H841     H      0.777540000000     0.277540000000     0.933000000000     0          
C842     C      0.765200000000     0.765200000000     0.463220000000     0          
H844     H      0.777540000000     0.777540000000     0.433000000000     0          
C845     C      0.265200000000     0.734800000000     0.536780000000     0          
H847     H      0.277500000000     0.722500000000     0.567030000000     0          
C848     C      0.265200000000     0.234800000000     0.036780000000     0          
H850     H      0.277500000000     0.222500000000     0.067030000000     0          
C851     C      0.765200000000     0.734800000000     0.036780000000     0          
O852     O      0.778000000000     0.722000000000     0.069700000000     0          
C854     C      0.765200000000     0.234800000000     0.536780000000     0          
O855     O      0.778000000000     0.222000000000     0.569700000000     0          
C857     C      0.463220000000     0.734800000000     0.734800000000     0          
H859     H      0.432970000000     0.722500000000     0.722500000000     0          
C860     C      0.463220000000     0.234800000000     0.234800000000     0          
O861     O      0.430300000000     0.222000000000     0.222000000000     0          
C863     C      0.963220000000     0.734800000000     0.234800000000     0          
O864     O      0.930300000000     0.722000000000     0.222000000000     0          
C866     C      0.963220000000     0.234800000000     0.734800000000     0          
H868     H      0.932970000000     0.222500000000     0.722500000000     0          
C869     C      0.536780000000     0.734800000000     0.265200000000     0          
O870     O      0.569700000000     0.722000000000     0.278000000000     0          
C872     C      0.536780000000     0.234800000000     0.765200000000     0          
H874     H      0.567030000000     0.222500000000     0.777500000000     0          
C875     C      0.036780000000     0.734800000000     0.765200000000     0          
H877     H      0.067030000000     0.722500000000     0.777500000000     0          
C878     C      0.036780000000     0.234800000000     0.265200000000     0          
O879     O      0.069700000000     0.222000000000     0.278000000000     0          
C881     C      0.463220000000     0.265200000000     0.265200000000     0          
H883     H      0.433000000000     0.277540000000     0.277540000000     0          
C884     C      0.463220000000     0.765200000000     0.765200000000     0          
O885     O      0.430300000000     0.778000000000     0.778000000000     0          
C887     C      0.963220000000     0.265200000000     0.765200000000     0          
O888     O      0.930300000000     0.278000000000     0.778000000000     0          
C890     C      0.963220000000     0.765200000000     0.265200000000     0          
H892     H      0.933000000000     0.777540000000     0.277540000000     0          
C893     C      0.536780000000     0.265200000000     0.734800000000     0          
O894     O      0.569700000000     0.278000000000     0.722000000000     0          
C896     C      0.536780000000     0.765200000000     0.234800000000     0          
H898     H      0.567030000000     0.777500000000     0.222500000000     0          
C899     C      0.036780000000     0.265200000000     0.234800000000     0          
H901     H      0.067030000000     0.277500000000     0.222500000000     0          
C902     C      0.036780000000     0.765200000000     0.734800000000     0          
O903     O      0.069700000000     0.778000000000     0.722000000000     0          
C905     C      0.463220000000     0.734800000000     0.265200000000     0          
H907     H      0.432970000000     0.722500000000     0.277500000000     0          
C908     C      0.463220000000     0.234800000000     0.765200000000     0          
O909     O      0.430300000000     0.222000000000     0.778000000000     0          
C911     C      0.963220000000     0.734800000000     0.765200000000     0          
O912     O      0.930300000000     0.722000000000     0.778000000000     0          
C914     C      0.963220000000     0.234800000000     0.265200000000     0          
H916     H      0.932970000000     0.222500000000     0.277500000000     0          
C917     C      0.536780000000     0.265200000000     0.265200000000     0          
O918     O      0.569700000000     0.278000000000     0.278000000000     0          
C920     C      0.536780000000     0.765200000000     0.765200000000     0          
H922     H      0.567030000000     0.777500000000     0.777500000000     0          
C923     C      0.036780000000     0.265200000000     0.765200000000     0          
H925     H      0.067030000000     0.277500000000     0.777500000000     0          
C926     C      0.036780000000     0.765200000000     0.265200000000     0          
O927     O      0.069700000000     0.778000000000     0.278000000000     0          
C929     C      0.463220000000     0.265200000000     0.734800000000     0          
H931     H      0.433000000000     0.277540000000     0.722460000000     0          
C932     C      0.463220000000     0.765200000000     0.234800000000     0          
O933     O      0.430300000000     0.778000000000     0.222000000000     0          
C935     C      0.963220000000     0.265200000000     0.234800000000     0          
O936     O      0.930300000000     0.278000000000     0.222000000000     0          
C938     C      0.963220000000     0.765200000000     0.734800000000     0          
H940     H      0.933000000000     0.777540000000     0.722460000000     0          
C941     C      0.536780000000     0.734800000000     0.734800000000     0          
O942     O      0.569700000000     0.722000000000     0.722000000000     0          
C944     C      0.536780000000     0.234800000000     0.234800000000     0          
H946     H      0.567030000000     0.222500000000     0.222500000000     0          
C947     C      0.036780000000     0.734800000000     0.234800000000     0          
H949     H      0.067030000000     0.722500000000     0.222500000000     0          
C950     C      0.036780000000     0.234800000000     0.734800000000     0          
O951     O      0.069700000000     0.222000000000     0.722000000000     0          
C953     C      0.734800000000     0.734800000000     0.536780000000     0          
H955     H      0.722500000000     0.722500000000     0.567030000000     0          
C956     C      0.734800000000     0.234800000000     0.036780000000     0          
H958     H      0.722500000000     0.222500000000     0.067030000000     0          
C959     C      0.234800000000     0.734800000000     0.036780000000     0          
O960     O      0.222000000000     0.722000000000     0.069700000000     0          
C962     C      0.234800000000     0.234800000000     0.536780000000     0          
O963     O      0.222000000000     0.222000000000     0.569700000000     0          
C965     C      0.265200000000     0.734800000000     0.463220000000     0          
O966     O      0.278000000000     0.722000000000     0.430300000000     0          
C968     C      0.265200000000     0.234800000000     0.963220000000     0          
O969     O      0.278000000000     0.222000000000     0.930300000000     0          
C971     C      0.765200000000     0.734800000000     0.963220000000     0          
H973     H      0.777500000000     0.722500000000     0.932970000000     0          
C974     C      0.765200000000     0.234800000000     0.463220000000     0          
H976     H      0.777500000000     0.222500000000     0.432970000000     0          
C977     C      0.265200000000     0.265200000000     0.536780000000     0          
H979     H      0.277500000000     0.277500000000     0.567030000000     0          
C980     C      0.265200000000     0.765200000000     0.036780000000     0          
H982     H      0.277500000000     0.777500000000     0.067030000000     0          
C983     C      0.765200000000     0.265200000000     0.036780000000     0          
O984     O      0.778000000000     0.278000000000     0.069700000000     0          
C986     C      0.765200000000     0.765200000000     0.536780000000     0          
O987     O      0.778000000000     0.778000000000     0.569700000000     0          
C989     C      0.734800000000     0.265200000000     0.463220000000     0          
O990     O      0.722000000000     0.278000000000     0.430300000000     0          
C992     C      0.734800000000     0.765200000000     0.963220000000     0          
O993     O      0.722000000000     0.778000000000     0.930300000000     0          
C995     C      0.234800000000     0.265200000000     0.963220000000     0          
H997     H      0.222460000000     0.277540000000     0.933000000000     0          
C998     C      0.234800000000     0.765200000000     0.463220000000     0          
H1000    H      0.222460000000     0.777540000000     0.433000000000     0          
C1001    C      0.734800000000     0.463220000000     0.265200000000     0          
O1002    O      0.722000000000     0.430300000000     0.278000000000     0          
C1004    C      0.734800000000     0.963220000000     0.765200000000     0          
O1005    O      0.722000000000     0.930300000000     0.778000000000     0          
C1007    C      0.234800000000     0.463220000000     0.765200000000     0          
H1009    H      0.222500000000     0.432970000000     0.777500000000     0          
C1010    C      0.234800000000     0.963220000000     0.265200000000     0          
O1011    O      0.222000000000     0.930300000000     0.278000000000     0          
C1013    C      0.734800000000     0.536780000000     0.734800000000     0          
O1014    O      0.722000000000     0.569700000000     0.722000000000     0          
C1016    C      0.734800000000     0.036780000000     0.234800000000     0          
O1017    O      0.722000000000     0.069700000000     0.222000000000     0          
C1019    C      0.234800000000     0.536780000000     0.234800000000     0          
H1021    H      0.222500000000     0.567030000000     0.222500000000     0          
C1022    C      0.234800000000     0.036780000000     0.734800000000     0          
O1023    O      0.222000000000     0.069700000000     0.722000000000     0          
C1025    C      0.265200000000     0.463220000000     0.734800000000     0          
O1026    O      0.278000000000     0.430300000000     0.722000000000     0          
C1028    C      0.265200000000     0.963220000000     0.234800000000     0          
H1030    H      0.277540000000     0.933000000000     0.222460000000     0          
C1031    C      0.765200000000     0.463220000000     0.234800000000     0          
H1033    H      0.777540000000     0.433000000000     0.222460000000     0          
C1034    C      0.765200000000     0.963220000000     0.734800000000     0          
H1036    H      0.777540000000     0.933000000000     0.722460000000     0          
C1037    C      0.265200000000     0.536780000000     0.265200000000     0          
O1038    O      0.278000000000     0.569700000000     0.278000000000     0          
C1040    C      0.265200000000     0.036780000000     0.765200000000     0          
H1042    H      0.277500000000     0.067030000000     0.777500000000     0          
C1043    C      0.765200000000     0.536780000000     0.765200000000     0          
H1045    H      0.777500000000     0.567030000000     0.777500000000     0          
C1046    C      0.765200000000     0.036780000000     0.265200000000     0          
H1048    H      0.777500000000     0.067030000000     0.277500000000     0          
O511     O      0.963360000000     0.963360000000     0.536640000000     0          
O523     O      0.536640000000     0.963360000000     0.963360000000     0          
O533     O      0.963360000000     0.536640000000     0.963360000000     0          
O539     O      0.463360000000     0.963360000000     0.963360000000     0          
O541     O      0.963360000000     0.463360000000     0.963360000000     0          
O543     O      0.963360000000     0.963360000000     0.463360000000     0          


