# generated using pymatgen
data_Zr24Ni3H120C216(N3O8)8
_symmetry_space_group_name_H-M   'P 1'
_cell_length_a   33.14816156
_cell_length_b   33.14816156
_cell_length_c   33.14816156
_cell_angle_alpha   109.47122063
_cell_angle_beta   109.47122063
_cell_angle_gamma   109.47122063
_symmetry_Int_Tables_number   1
_chemical_formula_structural   Zr24Ni3H120C216(N3O8)8
_chemical_formula_sum   'Zr48 Ni6 H240 C432 N48 O128'
_cell_volume   28038.60806224
_cell_formula_units_Z   2
loop_
 _symmetry_equiv_pos_site_id
 _symmetry_equiv_pos_as_xyz
  1  'x, y, z'
loop_
 _atom_site_type_symbol
 _atom_site_label
 _atom_site_symmetry_multiplicity
 _atom_site_fract_x
 _atom_site_fract_y
 _atom_site_fract_z
 _atom_site_occupancy
  C  C0  1  0.65972000  0.15972000  0.31944000  1
  C  C1  1  0.68721000  0.18721000  0.37442000  1
  C  C2  1  0.58129000  0.08129000  0.16258000  1
  C  C3  1  0.71597000  0.17217000  0.39922000  1
  C  C4  1  0.72189000  0.13173000  0.37596000  1
  C  C5  1  0.68372000  0.16373000  0.29365000  1
  C  C6  1  0.65735000  0.14034000  0.24311000  1
  C  C7  1  0.60975000  0.10975000  0.21950000  1
  C  C8  1  0.64779000  0.00000000  0.07307000  1
  C  C9  1  0.72074000  0.04307000  0.15087000  1
  C  C10  1  0.68711000  1.00000000  0.10557000  1
  C  C11  1  0.76367000  0.04309000  0.17718000  1
  C  C12  1  0.68325000  0.22705000  0.39922000  1
  C  C13  1  0.65407000  0.24423000  0.37596000  1
  C  C14  1  0.60993000  0.12992000  0.29365000  1
  C  C15  1  0.58576000  0.10277000  0.24311000  1
  C  C16  1  0.84028000  0.15972000  0.50000000  1
  C  C17  1  0.81279000  0.18721000  0.50000000  1
  C  C18  1  0.91871000  0.08129000  0.50000000  1
  C  C19  1  0.77295000  0.17217000  0.45620000  1
  C  C20  1  0.75577000  0.13173000  0.40984000  1
  C  C21  1  0.87008000  0.16373000  0.48001000  1
  C  C22  1  0.89723000  0.14034000  0.48299000  1
  C  C23  1  0.89025000  0.10975000  0.50000000  1
  C  C24  1  0.82783000  0.22705000  0.54380000  1
  C  C25  1  0.86827000  0.24423000  0.59016000  1
  C  C26  1  0.83627000  0.12992000  0.51999000  1
  C  C27  1  0.85966000  0.10277000  0.51701000  1
  C  C28  1  0.65972000  0.34028000  0.50000000  1
  C  C29  1  0.68721000  0.31279000  0.50000000  1
  C  C30  1  0.58129000  0.41871000  0.50000000  1
  C  C31  1  0.68325000  0.28403000  0.45620000  1
  C  C32  1  0.65407000  0.27811000  0.40984000  1
  C  C33  1  0.60993000  0.31628000  0.48001000  1
  C  C34  1  0.58576000  0.34265000  0.48299000  1
  C  C35  1  0.60975000  0.39025000  0.50000000  1
  C  C36  1  0.84028000  0.34028000  0.68056000  1
  C  C37  1  0.81279000  0.31279000  0.62558000  1
  C  C38  1  0.91871000  0.41871000  0.83742000  1
  C  C39  1  0.82783000  0.28403000  0.60078000  1
  C  C40  1  0.86827000  0.27811000  0.62404000  1
  C  C41  1  0.83627000  0.31628000  0.70635000  1
  C  C42  1  0.85966000  0.34265000  0.75689000  1
  C  C43  1  0.89025000  0.39025000  0.78050000  1
  C  C44  1  0.71597000  0.31675000  0.54380000  1
  C  C45  1  0.72189000  0.34593000  0.59016000  1
  C  C46  1  0.68372000  0.39007000  0.51999000  1
  C  C47  1  0.65735000  0.41424000  0.51701000  1
  C  C48  1  0.77295000  0.31675000  0.60078000  1
  C  C49  1  0.75577000  0.34593000  0.62404000  1
  C  C50  1  0.87008000  0.39007000  0.70635000  1
  C  C51  1  0.89723000  0.41424000  0.75689000  1
  C  C52  1  0.67767000  0.95693000  0.10780000  1
  C  C53  1  0.72058000  0.95691000  0.13409000  1
  C  C54  1  0.84028000  0.50000000  0.15972000  1
  C  C55  1  0.81279000  0.50000000  0.18721000  1
  C  C56  1  0.91871000  0.50000000  0.08129000  1
  C  C57  1  0.77295000  0.45620000  0.17217000  1
  C  C58  1  0.75577000  0.40984000  0.13173000  1
  C  C59  1  0.87008000  0.48001000  0.16373000  1
  C  C60  1  0.89723000  0.48299000  0.14034000  1
  C  C61  1  0.89025000  0.50000000  0.10975000  1
  C  C62  1  0.92693000  0.35221000  0.00000000  1
  C  C63  1  0.89220000  0.32233000  0.04307000  1
  C  C64  1  0.89443000  0.31289000  0.00000000  1
  C  C65  1  0.86591000  0.27942000  0.04309000  1
  C  C66  1  0.82783000  0.54380000  0.22705000  1
  C  C67  1  0.86827000  0.59016000  0.24423000  1
  C  C68  1  0.83627000  0.51999000  0.12992000  1
  C  C69  1  0.85966000  0.51701000  0.10277000  1
  C  C70  1  0.65972000  0.31944000  0.15972000  1
  C  C71  1  0.68721000  0.37442000  0.18721000  1
  C  C72  1  0.58129000  0.16258000  0.08129000  1
  C  C73  1  0.71597000  0.39922000  0.17217000  1
  C  C74  1  0.72189000  0.37596000  0.13173000  1
  C  C75  1  0.68372000  0.29365000  0.16373000  1
  C  C76  1  0.65735000  0.24311000  0.14034000  1
  C  C77  1  0.60975000  0.21950000  0.10975000  1
  C  C78  1  0.68325000  0.39922000  0.22705000  1
  C  C79  1  0.65407000  0.37596000  0.24423000  1
  C  C80  1  0.60993000  0.29365000  0.12992000  1
  C  C81  1  0.58576000  0.24311000  0.10277000  1
  C  C82  1  0.84028000  0.68056000  0.34028000  1
  C  C83  1  0.81279000  0.62558000  0.31279000  1
  C  C84  1  0.91871000  0.83742000  0.41871000  1
  C  C85  1  0.82783000  0.60078000  0.28403000  1
  C  C86  1  0.86827000  0.62404000  0.27811000  1
  C  C87  1  0.83627000  0.70635000  0.31628000  1
  C  C88  1  0.85966000  0.75689000  0.34265000  1
  C  C89  1  0.89025000  0.78050000  0.39025000  1
  C  C90  1  0.65972000  0.50000000  0.34028000  1
  C  C91  1  0.68721000  0.50000000  0.31279000  1
  C  C92  1  0.58129000  0.50000000  0.41871000  1
  C  C93  1  0.68325000  0.45620000  0.28403000  1
  C  C94  1  0.65407000  0.40984000  0.27811000  1
  C  C95  1  0.60993000  0.48001000  0.31628000  1
  C  C96  1  0.58576000  0.48299000  0.34265000  1
  C  C97  1  0.60975000  0.50000000  0.39025000  1
  C  C98  1  0.77295000  0.60078000  0.31675000  1
  C  C99  1  0.75577000  0.62404000  0.34593000  1
  C  C100  1  0.87008000  0.70635000  0.39007000  1
  C  C101  1  0.89723000  0.75689000  0.41424000  1
  C  C102  1  0.71597000  0.54380000  0.31675000  1
  C  C103  1  0.72189000  0.59016000  0.34593000  1
  C  C104  1  0.68372000  0.51999000  0.39007000  1
  C  C105  1  0.65735000  0.51701000  0.41424000  1
  C  C106  1  0.84913000  0.27926000  0.95693000  1
  C  C107  1  0.82282000  0.23633000  0.95691000  1
  C  C108  1  0.15972000  0.31944000  0.65972000  1
  C  C109  1  0.18721000  0.37442000  0.68721000  1
  C  C110  1  0.08129000  0.16258000  0.58129000  1
  C  C111  1  0.22705000  0.39922000  0.68325000  1
  C  C112  1  0.24423000  0.37596000  0.65407000  1
  C  C113  1  0.12992000  0.29365000  0.60993000  1
  C  C114  1  0.10277000  0.24311000  0.58576000  1
  C  C115  1  0.10975000  0.21950000  0.60975000  1
  C  C116  1  0.07307000  0.07307000  0.42528000  1
  C  C117  1  0.10780000  0.15087000  0.43013000  1
  C  C118  1  0.10557000  0.10557000  0.41846000  1
  C  C119  1  0.13409000  0.17718000  0.41351000  1
  C  C120  1  0.17217000  0.39922000  0.71597000  1
  C  C121  1  0.13173000  0.37596000  0.72189000  1
  C  C122  1  0.16373000  0.29365000  0.68372000  1
  C  C123  1  0.14034000  0.24311000  0.65735000  1
  C  C124  1  0.34028000  0.50000000  0.65972000  1
  C  C125  1  0.31279000  0.50000000  0.68721000  1
  C  C126  1  0.41871000  0.50000000  0.58129000  1
  C  C127  1  0.28403000  0.45620000  0.68325000  1
  C  C128  1  0.27811000  0.40984000  0.65407000  1
  C  C129  1  0.31628000  0.48001000  0.60993000  1
  C  C130  1  0.34265000  0.48299000  0.58576000  1
  C  C131  1  0.39025000  0.50000000  0.60975000  1
  C  C132  1  0.31675000  0.54380000  0.71597000  1
  C  C133  1  0.34593000  0.59016000  0.72189000  1
  C  C134  1  0.39007000  0.51999000  0.68372000  1
  C  C135  1  0.41424000  0.51701000  0.65735000  1
  C  C136  1  0.15972000  0.50000000  0.84028000  1
  C  C137  1  0.18721000  0.50000000  0.81279000  1
  C  C138  1  0.08129000  0.50000000  0.91871000  1
  C  C139  1  0.17217000  0.45620000  0.77295000  1
  C  C140  1  0.13173000  0.40984000  0.75577000  1
  C  C141  1  0.16373000  0.48001000  0.87008000  1
  C  C142  1  0.14034000  0.48299000  0.89723000  1
  C  C143  1  0.10975000  0.50000000  0.89025000  1
  C  C144  1  0.34028000  0.68056000  0.84028000  1
  C  C145  1  0.31279000  0.62558000  0.81279000  1
  C  C146  1  0.41871000  0.83742000  0.91871000  1
  C  C147  1  0.31675000  0.60078000  0.77295000  1
  C  C148  1  0.34593000  0.62404000  0.75577000  1
  C  C149  1  0.39007000  0.70635000  0.87008000  1
  C  C150  1  0.41424000  0.75689000  0.89723000  1
  C  C151  1  0.39025000  0.78050000  0.89025000  1
  C  C152  1  0.22705000  0.54380000  0.82783000  1
  C  C153  1  0.24423000  0.59016000  0.86827000  1
  C  C154  1  0.12992000  0.51999000  0.83627000  1
  C  C155  1  0.10277000  0.51701000  0.85966000  1
  C  C156  1  0.28403000  0.60078000  0.82783000  1
  C  C157  1  0.27811000  0.62404000  0.86827000  1
  C  C158  1  0.31628000  0.70635000  0.83627000  1
  C  C159  1  0.34265000  0.75689000  0.85966000  1
  C  C160  1  0.15087000  0.10780000  0.43013000  1
  C  C161  1  0.17718000  0.13409000  0.41351000  1
  C  C162  1  0.00000000  0.92693000  0.35221000  1
  C  C163  1  0.04307000  0.89220000  0.32233000  1
  C  C164  1  0.00000000  0.89443000  0.31289000  1
  C  C165  1  0.04309000  0.86591000  0.27942000  1
  C  C166  1  0.95693000  0.84913000  0.27926000  1
  C  C167  1  0.95691000  0.82282000  0.23633000  1
  C  C168  1  0.92693000  0.57472000  0.92693000  1
  C  C169  1  0.89220000  0.56987000  0.84913000  1
  C  C170  1  0.89443000  0.58154000  0.89443000  1
  C  C171  1  0.86591000  0.58649000  0.82282000  1
  C  C172  1  0.84913000  0.56987000  0.89220000  1
  C  C173  1  0.82282000  0.58649000  0.86591000  1
  C  C174  1  0.57472000  0.92693000  0.92693000  1
  C  C175  1  0.56987000  0.84913000  0.89220000  1
  C  C176  1  0.58154000  0.89443000  0.89443000  1
  C  C177  1  0.58649000  0.82282000  0.86591000  1
  C  C178  1  0.56987000  0.89220000  0.84913000  1
  C  C179  1  0.58649000  0.86591000  0.82282000  1
  C  C180  1  0.64779000  0.07307000  1.00000000  1
  C  C181  1  0.67767000  0.10780000  0.95693000  1
  C  C182  1  0.68711000  0.10557000  1.00000000  1
  C  C183  1  0.72058000  0.13409000  0.95691000  1
  C  C184  1  0.72074000  0.15087000  0.04307000  1
  C  C185  1  0.76367000  0.17718000  0.04309000  1
  C  C186  1  0.64779000  0.64779000  0.57472000  1
  C  C187  1  0.72074000  0.67767000  0.56987000  1
  C  C188  1  0.68711000  0.68711000  0.58154000  1
  C  C189  1  0.76367000  0.72058000  0.58649000  1
  C  C190  1  0.67767000  0.72074000  0.56987000  1
  C  C191  1  0.72058000  0.76367000  0.58649000  1
  C  C192  1  0.35221000  0.92693000  0.00000000  1
  C  C193  1  0.27926000  0.84913000  0.95693000  1
  C  C194  1  0.31289000  0.89443000  0.00000000  1
  C  C195  1  0.23633000  0.82282000  0.95691000  1
  C  C196  1  0.32233000  0.89220000  0.04307000  1
  C  C197  1  0.27942000  0.86591000  0.04309000  1
  C  C198  1  0.92693000  0.00000000  0.35221000  1
  C  C199  1  0.84913000  0.95693000  0.27926000  1
  C  C200  1  0.89443000  1.00000000  0.31289000  1
  C  C201  1  0.82282000  0.95691000  0.23633000  1
  C  C202  1  0.89220000  0.04307000  0.32233000  1
  C  C203  1  0.86591000  0.04309000  0.27942000  1
  C  C204  1  0.07307000  0.42528000  0.07307000  1
  C  C205  1  0.10780000  0.43013000  0.15087000  1
  C  C206  1  0.10557000  0.41846000  0.10557000  1
  C  C207  1  0.13409000  0.41351000  0.17718000  1
  C  C208  1  0.15087000  0.43013000  0.10780000  1
  C  C209  1  0.17718000  0.41351000  0.13409000  1
  C  C210  1  0.34028000  0.65972000  0.50000000  1
  C  C211  1  0.31279000  0.68721000  0.50000000  1
  C  C212  1  0.41871000  0.58129000  0.50000000  1
  C  C213  1  0.28403000  0.68325000  0.45620000  1
  C  C214  1  0.27811000  0.65407000  0.40984000  1
  C  C215  1  0.31628000  0.60993000  0.48001000  1
  C  C216  1  0.34265000  0.58576000  0.48299000  1
  C  C217  1  0.39025000  0.60975000  0.50000000  1
  C  C218  1  0.35221000  0.42528000  0.35221000  1
  C  C219  1  0.27926000  0.43013000  0.32233000  1
  C  C220  1  0.31289000  0.41846000  0.31289000  1
  C  C221  1  0.23633000  0.41351000  0.27942000  1
  C  C222  1  0.31675000  0.71597000  0.54380000  1
  C  C223  1  0.34593000  0.72189000  0.59016000  1
  C  C224  1  0.39007000  0.68372000  0.51999000  1
  C  C225  1  0.41424000  0.65735000  0.51701000  1
  C  C226  1  0.15972000  0.65972000  0.31944000  1
  C  C227  1  0.18721000  0.68721000  0.37442000  1
  C  C228  1  0.08129000  0.58129000  0.16258000  1
  C  C229  1  0.22705000  0.68325000  0.39922000  1
  C  C230  1  0.24423000  0.65407000  0.37596000  1
  C  C231  1  0.12992000  0.60993000  0.29365000  1
  C  C232  1  0.10277000  0.58576000  0.24311000  1
  C  C233  1  0.10975000  0.60975000  0.21950000  1
  C  C234  1  0.17217000  0.71597000  0.39922000  1
  C  C235  1  0.13173000  0.72189000  0.37596000  1
  C  C236  1  0.16373000  0.68372000  0.29365000  1
  C  C237  1  0.14034000  0.65735000  0.24311000  1
  C  C238  1  0.34028000  0.84028000  0.68056000  1
  C  C239  1  0.31279000  0.81279000  0.62558000  1
  C  C240  1  0.41871000  0.91871000  0.83742000  1
  C  C241  1  0.31675000  0.77295000  0.60078000  1
  C  C242  1  0.34593000  0.75577000  0.62404000  1
  C  C243  1  0.39007000  0.87008000  0.70635000  1
  C  C244  1  0.41424000  0.89723000  0.75689000  1
  C  C245  1  0.39025000  0.89025000  0.78050000  1
  C  C246  1  0.15972000  0.84028000  0.50000000  1
  C  C247  1  0.18721000  0.81279000  0.50000000  1
  C  C248  1  0.08129000  0.91871000  0.50000000  1
  C  C249  1  0.17217000  0.77295000  0.45620000  1
  C  C250  1  0.13173000  0.75577000  0.40984000  1
  C  C251  1  0.16373000  0.87008000  0.48001000  1
  C  C252  1  0.14034000  0.89723000  0.48299000  1
  C  C253  1  0.10975000  0.89025000  0.50000000  1
  C  C254  1  0.28403000  0.82783000  0.60078000  1
  C  C255  1  0.27811000  0.86827000  0.62404000  1
  C  C256  1  0.31628000  0.83627000  0.70635000  1
  C  C257  1  0.34265000  0.85966000  0.75689000  1
  C  C258  1  0.22705000  0.82783000  0.54380000  1
  C  C259  1  0.24423000  0.86827000  0.59016000  1
  C  C260  1  0.12992000  0.83627000  0.51999000  1
  C  C261  1  0.10277000  0.85966000  0.51701000  1
  C  C262  1  0.32233000  0.43013000  0.27926000  1
  C  C263  1  0.27942000  0.41351000  0.23633000  1
  C  C264  1  0.00000000  0.35221000  0.92693000  1
  C  C265  1  0.95693000  0.27926000  0.84913000  1
  C  C266  1  0.00000000  0.31289000  0.89443000  1
  C  C267  1  0.95691000  0.23633000  0.82282000  1
  C  C268  1  0.04307000  0.32233000  0.89220000  1
  C  C269  1  0.04309000  0.27942000  0.86591000  1
  C  C270  1  0.07307000  1.00000000  0.64779000  1
  C  C271  1  0.10780000  0.95693000  0.67767000  1
  C  C272  1  0.10557000  0.00000000  0.68711000  1
  C  C273  1  0.13409000  0.95691000  0.72058000  1
  C  C274  1  0.15087000  0.04307000  0.72074000  1
  C  C275  1  0.17718000  0.04309000  0.76367000  1
  C  C276  1  0.35221000  0.35221000  0.42528000  1
  C  C277  1  0.27926000  0.32233000  0.43013000  1
  C  C278  1  0.31289000  0.31289000  0.41846000  1
  C  C279  1  0.23633000  0.27942000  0.41351000  1
  C  C280  1  0.32233000  0.27926000  0.43013000  1
  C  C281  1  0.27942000  0.23633000  0.41351000  1
  C  C282  1  0.42528000  0.35221000  0.35221000  1
  C  C283  1  0.43013000  0.32233000  0.27926000  1
  C  C284  1  0.41846000  0.31289000  0.31289000  1
  C  C285  1  0.41351000  0.27942000  0.23633000  1
  C  C286  1  0.43013000  0.27926000  0.32233000  1
  C  C287  1  0.41351000  0.23633000  0.27942000  1
  C  C288  1  0.57472000  0.64779000  0.64779000  1
  C  C289  1  0.56987000  0.72074000  0.67767000  1
  C  C290  1  0.58154000  0.68711000  0.68711000  1
  C  C291  1  0.58649000  0.76367000  0.72058000  1
  C  C292  1  0.56987000  0.67767000  0.72074000  1
  C  C293  1  0.58649000  0.72058000  0.76367000  1
  C  C294  1  0.00000000  0.64779000  0.07307000  1
  C  C295  1  0.95693000  0.67767000  0.10780000  1
  C  C296  1  0.00000000  0.68711000  0.10557000  1
  C  C297  1  0.95691000  0.72058000  0.13409000  1
  C  C298  1  0.04307000  0.72074000  0.15087000  1
  C  C299  1  0.04309000  0.76367000  0.17718000  1
  C  C300  1  0.07307000  0.64779000  0.00000000  1
  C  C301  1  0.15087000  0.72074000  0.04307000  1
  C  C302  1  0.10557000  0.68711000  0.00000000  1
  C  C303  1  0.17718000  0.76367000  0.04309000  1
  C  C304  1  0.10780000  0.67767000  0.95693000  1
  C  C305  1  0.13409000  0.72058000  0.95691000  1
  C  C306  1  0.64779000  0.57472000  0.64779000  1
  C  C307  1  0.67767000  0.56987000  0.72074000  1
  C  C308  1  0.68711000  0.58154000  0.68711000  1
  C  C309  1  0.72058000  0.58649000  0.76367000  1
  C  C310  1  0.72074000  0.56987000  0.67767000  1
  C  C311  1  0.76367000  0.58649000  0.72058000  1
  C  C312  1  0.35221000  0.00000000  0.92693000  1
  C  C313  1  0.27926000  0.95693000  0.84913000  1
  C  C314  1  0.31289000  0.00000000  0.89443000  1
  C  C315  1  0.23633000  0.95691000  0.82282000  1
  C  C316  1  0.32233000  0.04307000  0.89220000  1
  C  C317  1  0.27942000  0.04309000  0.86591000  1
  C  C318  1  0.00000000  0.07307000  0.64779000  1
  C  C319  1  0.04307000  0.15087000  0.72074000  1
  C  C320  1  0.00000000  0.10557000  0.68711000  1
  C  C321  1  0.04309000  0.17718000  0.76367000  1
  C  C322  1  0.95693000  0.10780000  0.67767000  1
  C  C323  1  0.95691000  0.13409000  0.72058000  1
  C  C324  1  0.92693000  0.92693000  0.57472000  1
  C  C325  1  0.84913000  0.89220000  0.56987000  1
  C  C326  1  0.89443000  0.89443000  0.58154000  1
  C  C327  1  0.82282000  0.86591000  0.58649000  1
  C  C328  1  0.89220000  0.84913000  0.56987000  1
  C  C329  1  0.86591000  0.82282000  0.58649000  1
  C  C330  1  0.42528000  0.07307000  0.07307000  1
  C  C331  1  0.43013000  0.10780000  0.15087000  1
  C  C332  1  0.41846000  0.10557000  0.10557000  1
  C  C333  1  0.41351000  0.13409000  0.17718000  1
  C  C334  1  0.43013000  0.15087000  0.10780000  1
  C  C335  1  0.41351000  0.17718000  0.13409000  1
  C  C336  1  0.68056000  0.84028000  0.34028000  1
  C  C337  1  0.62558000  0.81279000  0.31279000  1
  C  C338  1  0.83742000  0.91871000  0.41871000  1
  C  C339  1  0.60078000  0.82783000  0.28403000  1
  C  C340  1  0.62404000  0.86827000  0.27811000  1
  C  C341  1  0.70635000  0.83627000  0.31628000  1
  C  C342  1  0.75689000  0.85966000  0.34265000  1
  C  C343  1  0.78050000  0.89025000  0.39025000  1
  C  C344  1  0.60078000  0.77295000  0.31675000  1
  C  C345  1  0.62404000  0.75577000  0.34593000  1
  C  C346  1  0.70635000  0.87008000  0.39007000  1
  C  C347  1  0.75689000  0.89723000  0.41424000  1
  C  C348  1  0.50000000  0.84028000  0.15972000  1
  C  C349  1  0.50000000  0.81279000  0.18721000  1
  C  C350  1  0.50000000  0.91871000  0.08129000  1
  C  C351  1  0.54380000  0.82783000  0.22705000  1
  C  C352  1  0.59016000  0.86827000  0.24423000  1
  C  C353  1  0.51999000  0.83627000  0.12992000  1
  C  C354  1  0.51701000  0.85966000  0.10277000  1
  C  C355  1  0.50000000  0.89025000  0.10975000  1
  C  C356  1  0.45620000  0.77295000  0.17217000  1
  C  C357  1  0.40984000  0.75577000  0.13173000  1
  C  C358  1  0.48001000  0.87008000  0.16373000  1
  C  C359  1  0.48299000  0.89723000  0.14034000  1
  C  C360  1  0.50000000  0.65972000  0.34028000  1
  C  C361  1  0.50000000  0.68721000  0.31279000  1
  C  C362  1  0.50000000  0.58129000  0.41871000  1
  C  C363  1  0.54380000  0.71597000  0.31675000  1
  C  C364  1  0.59016000  0.72189000  0.34593000  1
  C  C365  1  0.51999000  0.68372000  0.39007000  1
  C  C366  1  0.51701000  0.65735000  0.41424000  1
  C  C367  1  0.50000000  0.60975000  0.39025000  1
  C  C368  1  0.31944000  0.65972000  0.15972000  1
  C  C369  1  0.37442000  0.68721000  0.18721000  1
  C  C370  1  0.16258000  0.58129000  0.08129000  1
  C  C371  1  0.39922000  0.71597000  0.17217000  1
  C  C372  1  0.37596000  0.72189000  0.13173000  1
  C  C373  1  0.29365000  0.68372000  0.16373000  1
  C  C374  1  0.24311000  0.65735000  0.14034000  1
  C  C375  1  0.21950000  0.60975000  0.10975000  1
  C  C376  1  0.45620000  0.68325000  0.28403000  1
  C  C377  1  0.40984000  0.65407000  0.27811000  1
  C  C378  1  0.48001000  0.60993000  0.31628000  1
  C  C379  1  0.48299000  0.58576000  0.34265000  1
  C  C380  1  0.39922000  0.68325000  0.22705000  1
  C  C381  1  0.37596000  0.65407000  0.24423000  1
  C  C382  1  0.29365000  0.60993000  0.12992000  1
  C  C383  1  0.24311000  0.58576000  0.10277000  1
  C  C384  1  0.50000000  0.34028000  0.65972000  1
  C  C385  1  0.50000000  0.31279000  0.68721000  1
  C  C386  1  0.50000000  0.41871000  0.58129000  1
  C  C387  1  0.54380000  0.31675000  0.71597000  1
  C  C388  1  0.59016000  0.34593000  0.72189000  1
  C  C389  1  0.51999000  0.39007000  0.68372000  1
  C  C390  1  0.51701000  0.41424000  0.65735000  1
  C  C391  1  0.50000000  0.39025000  0.60975000  1
  C  C392  1  0.45620000  0.28403000  0.68325000  1
  C  C393  1  0.40984000  0.27811000  0.65407000  1
  C  C394  1  0.48001000  0.31628000  0.60993000  1
  C  C395  1  0.48299000  0.34265000  0.58576000  1
  C  C396  1  0.68056000  0.34028000  0.84028000  1
  C  C397  1  0.62558000  0.31279000  0.81279000  1
  C  C398  1  0.83742000  0.41871000  0.91871000  1
  C  C399  1  0.60078000  0.31675000  0.77295000  1
  C  C400  1  0.62404000  0.34593000  0.75577000  1
  C  C401  1  0.70635000  0.39007000  0.87008000  1
  C  C402  1  0.75689000  0.41424000  0.89723000  1
  C  C403  1  0.78050000  0.39025000  0.89025000  1
  C  C404  1  0.60078000  0.28403000  0.82783000  1
  C  C405  1  0.62404000  0.27811000  0.86827000  1
  C  C406  1  0.70635000  0.31628000  0.83627000  1
  C  C407  1  0.75689000  0.34265000  0.85966000  1
  C  C408  1  0.31944000  0.15972000  0.65972000  1
  C  C409  1  0.37442000  0.18721000  0.68721000  1
  C  C410  1  0.16258000  0.08129000  0.58129000  1
  C  C411  1  0.39922000  0.22705000  0.68325000  1
  C  C412  1  0.37596000  0.24423000  0.65407000  1
  C  C413  1  0.29365000  0.12992000  0.60993000  1
  C  C414  1  0.24311000  0.10277000  0.58576000  1
  C  C415  1  0.21950000  0.10975000  0.60975000  1
  C  C416  1  0.50000000  0.15972000  0.84028000  1
  C  C417  1  0.50000000  0.18721000  0.81279000  1
  C  C418  1  0.50000000  0.08129000  0.91871000  1
  C  C419  1  0.54380000  0.22705000  0.82783000  1
  C  C420  1  0.59016000  0.24423000  0.86827000  1
  C  C421  1  0.51999000  0.12992000  0.83627000  1
  C  C422  1  0.51701000  0.10277000  0.85966000  1
  C  C423  1  0.50000000  0.10975000  0.89025000  1
  C  C424  1  0.39922000  0.17217000  0.71597000  1
  C  C425  1  0.37596000  0.13173000  0.72189000  1
  C  C426  1  0.29365000  0.16373000  0.68372000  1
  C  C427  1  0.24311000  0.14034000  0.65735000  1
  C  C428  1  0.45620000  0.17217000  0.77295000  1
  C  C429  1  0.40984000  0.13173000  0.75577000  1
  C  C430  1  0.48001000  0.16373000  0.87008000  1
  C  C431  1  0.48299000  0.14034000  0.89723000  1
  H  H432  1  0.70410000  0.10870000  0.34160000  1
  H  H433  1  0.71870000  0.18270000  0.31060000  1
  H  H434  1  0.67370000  0.14640000  0.22530000  1
  H  H435  1  0.71520000  0.06980000  0.16280000  1
  H  H436  1  0.79000000  0.06990000  0.20870000  1
  H  H437  1  0.63750000  0.23290000  0.34160000  1
  H  H438  1  0.59190000  0.12790000  0.31060000  1
  H  H439  1  0.55160000  0.07890000  0.22530000  1
  H  H440  1  0.76710000  0.10870000  0.40460000  1
  H  H441  1  0.87210000  0.18270000  0.46400000  1
  H  H442  1  0.92110000  0.14640000  0.47270000  1
  H  H443  1  0.89130000  0.23290000  0.59540000  1
  H  H444  1  0.81730000  0.12790000  0.53600000  1
  H  H445  1  0.85360000  0.07890000  0.52730000  1
  H  H446  1  0.63750000  0.29590000  0.40460000  1
  H  H447  1  0.59190000  0.28130000  0.46400000  1
  H  H448  1  0.55160000  0.32630000  0.47270000  1
  H  H449  1  0.89130000  0.29590000  0.65840000  1
  H  H450  1  0.81730000  0.28130000  0.68940000  1
  H  H451  1  0.85360000  0.32630000  0.77470000  1
  H  H452  1  0.70410000  0.36250000  0.59540000  1
  H  H453  1  0.71870000  0.40810000  0.53600000  1
  H  H454  1  0.67370000  0.44840000  0.52730000  1
  H  H455  1  0.76710000  0.36250000  0.65840000  1
  H  H456  1  0.87210000  0.40810000  0.68940000  1
  H  H457  1  0.92110000  0.44840000  0.77470000  1
  H  H458  1  0.64540000  0.93020000  0.09300000  1
  H  H459  1  0.72010000  0.93010000  0.13880000  1
  H  H460  1  0.76710000  0.40460000  0.10870000  1
  H  H461  1  0.87210000  0.46400000  0.18270000  1
  H  H462  1  0.92110000  0.47270000  0.14640000  1
  H  H463  1  0.90700000  0.35460000  0.06980000  1
  H  H464  1  0.86120000  0.27990000  0.06990000  1
  H  H465  1  0.89130000  0.59540000  0.23290000  1
  H  H466  1  0.81730000  0.53600000  0.12790000  1
  H  H467  1  0.85360000  0.52730000  0.07890000  1
  H  H468  1  0.70410000  0.34160000  0.10870000  1
  H  H469  1  0.71870000  0.31060000  0.18270000  1
  H  H470  1  0.67370000  0.22530000  0.14640000  1
  H  H471  1  0.63750000  0.34160000  0.23290000  1
  H  H472  1  0.59190000  0.31060000  0.12790000  1
  H  H473  1  0.55160000  0.22530000  0.07890000  1
  H  H474  1  0.89130000  0.65840000  0.29590000  1
  H  H475  1  0.81730000  0.68940000  0.28130000  1
  H  H476  1  0.85360000  0.77470000  0.32630000  1
  H  H477  1  0.63750000  0.40460000  0.29590000  1
  H  H478  1  0.59190000  0.46400000  0.28130000  1
  H  H479  1  0.55160000  0.47270000  0.32630000  1
  H  H480  1  0.76710000  0.65840000  0.36250000  1
  H  H481  1  0.87210000  0.68940000  0.40810000  1
  H  H482  1  0.92110000  0.77470000  0.44840000  1
  H  H483  1  0.70410000  0.59540000  0.36250000  1
  H  H484  1  0.71870000  0.53600000  0.40810000  1
  H  H485  1  0.67370000  0.52730000  0.44840000  1
  H  H486  1  0.83720000  0.28480000  0.93020000  1
  H  H487  1  0.79130000  0.21000000  0.93010000  1
  H  H488  1  0.23290000  0.34160000  0.63750000  1
  H  H489  1  0.12790000  0.31060000  0.59190000  1
  H  H490  1  0.07890000  0.22530000  0.55160000  1
  H  H491  1  0.09300000  0.16280000  0.44760000  1
  H  H492  1  0.13880000  0.20870000  0.41870000  1
  H  H493  1  0.10870000  0.34160000  0.70410000  1
  H  H494  1  0.18270000  0.31060000  0.71870000  1
  H  H495  1  0.14640000  0.22530000  0.67370000  1
  H  H496  1  0.29590000  0.40460000  0.63750000  1
  H  H497  1  0.28130000  0.46400000  0.59190000  1
  H  H498  1  0.32630000  0.47270000  0.55160000  1
  H  H499  1  0.36250000  0.59540000  0.70410000  1
  H  H500  1  0.40810000  0.53600000  0.71870000  1
  H  H501  1  0.44840000  0.52730000  0.67370000  1
  H  H502  1  0.10870000  0.40460000  0.76710000  1
  H  H503  1  0.18270000  0.46400000  0.87210000  1
  H  H504  1  0.14640000  0.47270000  0.92110000  1
  H  H505  1  0.36250000  0.65840000  0.76710000  1
  H  H506  1  0.40810000  0.68940000  0.87210000  1
  H  H507  1  0.44840000  0.77470000  0.92110000  1
  H  H508  1  0.23290000  0.59540000  0.89130000  1
  H  H509  1  0.12790000  0.53600000  0.81730000  1
  H  H510  1  0.07890000  0.52730000  0.85360000  1
  H  H511  1  0.29590000  0.65840000  0.89130000  1
  H  H512  1  0.28130000  0.68940000  0.81730000  1
  H  H513  1  0.32630000  0.77470000  0.85360000  1
  H  H514  1  0.16280000  0.09300000  0.44760000  1
  H  H515  1  0.20870000  0.13880000  0.41870000  1
  H  H516  1  0.06980000  0.90700000  0.35460000  1
  H  H517  1  0.06990000  0.86120000  0.27990000  1
  H  H518  1  0.93020000  0.83720000  0.28480000  1
  H  H519  1  0.93010000  0.79130000  0.21000000  1
  H  H520  1  0.90700000  0.55240000  0.83720000  1
  H  H521  1  0.86120000  0.58130000  0.79130000  1
  H  H522  1  0.83720000  0.55240000  0.90700000  1
  H  H523  1  0.79130000  0.58130000  0.86120000  1
  H  H524  1  0.55240000  0.83720000  0.90700000  1
  H  H525  1  0.58130000  0.79130000  0.86120000  1
  H  H526  1  0.55240000  0.90700000  0.83720000  1
  H  H527  1  0.58130000  0.86120000  0.79130000  1
  H  H528  1  0.64540000  0.09300000  0.93020000  1
  H  H529  1  0.72010000  0.13880000  0.93010000  1
  H  H530  1  0.71520000  0.16280000  0.06980000  1
  H  H531  1  0.79000000  0.20870000  0.06990000  1
  H  H532  1  0.71520000  0.64540000  0.55240000  1
  H  H533  1  0.79000000  0.72010000  0.58130000  1
  H  H534  1  0.64540000  0.71520000  0.55240000  1
  H  H535  1  0.72010000  0.79000000  0.58130000  1
  H  H536  1  0.28480000  0.83720000  0.93020000  1
  H  H537  1  0.21000000  0.79130000  0.93010000  1
  H  H538  1  0.35460000  0.90700000  0.06980000  1
  H  H539  1  0.27990000  0.86120000  0.06990000  1
  H  H540  1  0.83720000  0.93020000  0.28480000  1
  H  H541  1  0.79130000  0.93010000  0.21000000  1
  H  H542  1  0.90700000  0.06980000  0.35460000  1
  H  H543  1  0.86120000  0.06990000  0.27990000  1
  H  H544  1  0.09300000  0.44760000  0.16280000  1
  H  H545  1  0.13880000  0.41870000  0.20870000  1
  H  H546  1  0.16280000  0.44760000  0.09300000  1
  H  H547  1  0.20870000  0.41870000  0.13880000  1
  H  H548  1  0.29590000  0.63750000  0.40460000  1
  H  H549  1  0.28130000  0.59190000  0.46400000  1
  H  H550  1  0.32630000  0.55160000  0.47270000  1
  H  H551  1  0.28480000  0.44760000  0.35460000  1
  H  H552  1  0.21000000  0.41870000  0.27990000  1
  H  H553  1  0.36250000  0.70410000  0.59540000  1
  H  H554  1  0.40810000  0.71870000  0.53600000  1
  H  H555  1  0.44840000  0.67370000  0.52730000  1
  H  H556  1  0.23290000  0.63750000  0.34160000  1
  H  H557  1  0.12790000  0.59190000  0.31060000  1
  H  H558  1  0.07890000  0.55160000  0.22530000  1
  H  H559  1  0.10870000  0.70410000  0.34160000  1
  H  H560  1  0.18270000  0.71870000  0.31060000  1
  H  H561  1  0.14640000  0.67370000  0.22530000  1
  H  H562  1  0.36250000  0.76710000  0.65840000  1
  H  H563  1  0.40810000  0.87210000  0.68940000  1
  H  H564  1  0.44840000  0.92110000  0.77470000  1
  H  H565  1  0.10870000  0.76710000  0.40460000  1
  H  H566  1  0.18270000  0.87210000  0.46400000  1
  H  H567  1  0.14640000  0.92110000  0.47270000  1
  H  H568  1  0.29590000  0.89130000  0.65840000  1
  H  H569  1  0.28130000  0.81730000  0.68940000  1
  H  H570  1  0.32630000  0.85360000  0.77470000  1
  H  H571  1  0.23290000  0.89130000  0.59540000  1
  H  H572  1  0.12790000  0.81730000  0.53600000  1
  H  H573  1  0.07890000  0.85360000  0.52730000  1
  H  H574  1  0.35460000  0.44760000  0.28480000  1
  H  H575  1  0.27990000  0.41870000  0.21000000  1
  H  H576  1  0.93020000  0.28480000  0.83720000  1
  H  H577  1  0.93010000  0.21000000  0.79130000  1
  H  H578  1  0.06980000  0.35460000  0.90700000  1
  H  H579  1  0.06990000  0.27990000  0.86120000  1
  H  H580  1  0.09300000  0.93020000  0.64540000  1
  H  H581  1  0.13880000  0.93010000  0.72010000  1
  H  H582  1  0.16280000  0.06980000  0.71520000  1
  H  H583  1  0.20870000  0.06990000  0.79000000  1
  H  H584  1  0.28480000  0.35460000  0.44760000  1
  H  H585  1  0.21000000  0.27990000  0.41870000  1
  H  H586  1  0.35460000  0.28480000  0.44760000  1
  H  H587  1  0.27990000  0.21000000  0.41870000  1
  H  H588  1  0.44760000  0.35460000  0.28480000  1
  H  H589  1  0.41870000  0.27990000  0.21000000  1
  H  H590  1  0.44760000  0.28480000  0.35460000  1
  H  H591  1  0.41870000  0.21000000  0.27990000  1
  H  H592  1  0.55240000  0.71520000  0.64540000  1
  H  H593  1  0.58130000  0.79000000  0.72010000  1
  H  H594  1  0.55240000  0.64540000  0.71520000  1
  H  H595  1  0.58130000  0.72010000  0.79000000  1
  H  H596  1  0.93020000  0.64540000  0.09300000  1
  H  H597  1  0.93010000  0.72010000  0.13880000  1
  H  H598  1  0.06980000  0.71520000  0.16280000  1
  H  H599  1  0.06990000  0.79000000  0.20870000  1
  H  H600  1  0.16280000  0.71520000  0.06980000  1
  H  H601  1  0.20870000  0.79000000  0.06990000  1
  H  H602  1  0.09300000  0.64540000  0.93020000  1
  H  H603  1  0.13880000  0.72010000  0.93010000  1
  H  H604  1  0.64540000  0.55240000  0.71520000  1
  H  H605  1  0.72010000  0.58130000  0.79000000  1
  H  H606  1  0.71520000  0.55240000  0.64540000  1
  H  H607  1  0.79000000  0.58130000  0.72010000  1
  H  H608  1  0.28480000  0.93020000  0.83720000  1
  H  H609  1  0.21000000  0.93010000  0.79130000  1
  H  H610  1  0.35460000  0.06980000  0.90700000  1
  H  H611  1  0.27990000  0.06990000  0.86120000  1
  H  H612  1  0.06980000  0.16280000  0.71520000  1
  H  H613  1  0.06990000  0.20870000  0.79000000  1
  H  H614  1  0.93020000  0.09300000  0.64540000  1
  H  H615  1  0.93010000  0.13880000  0.72010000  1
  H  H616  1  0.83720000  0.90700000  0.55240000  1
  H  H617  1  0.79130000  0.86120000  0.58130000  1
  H  H618  1  0.90700000  0.83720000  0.55240000  1
  H  H619  1  0.86120000  0.79130000  0.58130000  1
  H  H620  1  0.44760000  0.09300000  0.16280000  1
  H  H621  1  0.41870000  0.13880000  0.20870000  1
  H  H622  1  0.44760000  0.16280000  0.09300000  1
  H  H623  1  0.41870000  0.20870000  0.13880000  1
  H  H624  1  0.65840000  0.89130000  0.29590000  1
  H  H625  1  0.68940000  0.81730000  0.28130000  1
  H  H626  1  0.77470000  0.85360000  0.32630000  1
  H  H627  1  0.65840000  0.76710000  0.36250000  1
  H  H628  1  0.68940000  0.87210000  0.40810000  1
  H  H629  1  0.77470000  0.92110000  0.44840000  1
  H  H630  1  0.59540000  0.89130000  0.23290000  1
  H  H631  1  0.53600000  0.81730000  0.12790000  1
  H  H632  1  0.52730000  0.85360000  0.07890000  1
  H  H633  1  0.40460000  0.76710000  0.10870000  1
  H  H634  1  0.46400000  0.87210000  0.18270000  1
  H  H635  1  0.47270000  0.92110000  0.14640000  1
  H  H636  1  0.59540000  0.70410000  0.36250000  1
  H  H637  1  0.53600000  0.71870000  0.40810000  1
  H  H638  1  0.52730000  0.67370000  0.44840000  1
  H  H639  1  0.34160000  0.70410000  0.10870000  1
  H  H640  1  0.31060000  0.71870000  0.18270000  1
  H  H641  1  0.22530000  0.67370000  0.14640000  1
  H  H642  1  0.40460000  0.63750000  0.29590000  1
  H  H643  1  0.46400000  0.59190000  0.28130000  1
  H  H644  1  0.47270000  0.55160000  0.32630000  1
  H  H645  1  0.34160000  0.63750000  0.23290000  1
  H  H646  1  0.31060000  0.59190000  0.12790000  1
  H  H647  1  0.22530000  0.55160000  0.07890000  1
  H  H648  1  0.59540000  0.36250000  0.70410000  1
  H  H649  1  0.53600000  0.40810000  0.71870000  1
  H  H650  1  0.52730000  0.44840000  0.67370000  1
  H  H651  1  0.40460000  0.29590000  0.63750000  1
  H  H652  1  0.46400000  0.28130000  0.59190000  1
  H  H653  1  0.47270000  0.32630000  0.55160000  1
  H  H654  1  0.65840000  0.36250000  0.76710000  1
  H  H655  1  0.68940000  0.40810000  0.87210000  1
  H  H656  1  0.77470000  0.44840000  0.92110000  1
  H  H657  1  0.65840000  0.29590000  0.89130000  1
  H  H658  1  0.68940000  0.28130000  0.81730000  1
  H  H659  1  0.77470000  0.32630000  0.85360000  1
  H  H660  1  0.34160000  0.23290000  0.63750000  1
  H  H661  1  0.31060000  0.12790000  0.59190000  1
  H  H662  1  0.22530000  0.07890000  0.55160000  1
  H  H663  1  0.59540000  0.23290000  0.89130000  1
  H  H664  1  0.53600000  0.12790000  0.81730000  1
  H  H665  1  0.52730000  0.07890000  0.85360000  1
  H  H666  1  0.34160000  0.10870000  0.70410000  1
  H  H667  1  0.31060000  0.18270000  0.71870000  1
  H  H668  1  0.22530000  0.14640000  0.67370000  1
  H  H669  1  0.40460000  0.10870000  0.76710000  1
  H  H670  1  0.46400000  0.18270000  0.87210000  1
  H  H671  1  0.47270000  0.14640000  0.92110000  1
  N  N672  1  0.74816000  0.19794000  0.44978000  1
  N  N673  1  0.76409000  1.00000000  0.15269000  1
  N  N674  1  0.70162000  0.25184000  0.44978000  1
  N  N675  1  0.80206000  0.25184000  0.55022000  1
  N  N676  1  0.74816000  0.29838000  0.55022000  1
  N  N677  1  0.74816000  0.44978000  0.19794000  1
  N  N678  1  0.84731000  0.23591000  0.00000000  1
  N  N679  1  0.80206000  0.55022000  0.25184000  1
  N  N680  1  0.70162000  0.44978000  0.25184000  1
  N  N681  1  0.74816000  0.55022000  0.29838000  1
  N  N682  1  0.25184000  0.44978000  0.70162000  1
  N  N683  1  0.15269000  0.15269000  0.38860000  1
  N  N684  1  0.19794000  0.44978000  0.74816000  1
  N  N685  1  0.29838000  0.55022000  0.74816000  1
  N  N686  1  0.25184000  0.55022000  0.80206000  1
  N  N687  1  0.00000000  0.84731000  0.23591000  1
  N  N688  1  0.84731000  0.61140000  0.84731000  1
  N  N689  1  0.61140000  0.84731000  0.84731000  1
  N  N690  1  0.76409000  0.15269000  1.00000000  1
  N  N691  1  0.76409000  0.76409000  0.61140000  1
  N  N692  1  0.23591000  0.84731000  0.00000000  1
  N  N693  1  0.84731000  1.00000000  0.23591000  1
  N  N694  1  0.15269000  0.38860000  0.15269000  1
  N  N695  1  0.25184000  0.70162000  0.44978000  1
  N  N696  1  0.23591000  0.38860000  0.23591000  1
  N  N697  1  0.29838000  0.74816000  0.55022000  1
  N  N698  1  0.19794000  0.74816000  0.44978000  1
  N  N699  1  0.25184000  0.80206000  0.55022000  1
  N  N700  1  0.00000000  0.23591000  0.84731000  1
  N  N701  1  0.15269000  0.00000000  0.76409000  1
  N  N702  1  0.23591000  0.23591000  0.38860000  1
  N  N703  1  0.38860000  0.23591000  0.23591000  1
  N  N704  1  0.61140000  0.76409000  0.76409000  1
  N  N705  1  0.00000000  0.76409000  0.15269000  1
  N  N706  1  0.15269000  0.76409000  0.00000000  1
  N  N707  1  0.76409000  0.61140000  0.76409000  1
  N  N708  1  0.23591000  1.00000000  0.84731000  1
  N  N709  1  0.00000000  0.15269000  0.76409000  1
  N  N710  1  0.84731000  0.84731000  0.61140000  1
  N  N711  1  0.38860000  0.15269000  0.15269000  1
  N  N712  1  0.55022000  0.80206000  0.25184000  1
  N  N713  1  0.55022000  0.74816000  0.29838000  1
  N  N714  1  0.44978000  0.74816000  0.19794000  1
  N  N715  1  0.44978000  0.70162000  0.25184000  1
  N  N716  1  0.55022000  0.29838000  0.74816000  1
  N  N717  1  0.44978000  0.25184000  0.70162000  1
  N  N718  1  0.55022000  0.25184000  0.80206000  1
  N  N719  1  0.44978000  0.19794000  0.74816000  1
  Ni  Ni720  1  0.75000000  0.25000000  0.50000000  1
  Ni  Ni721  1  0.75000000  0.50000000  0.25000000  1
  Ni  Ni722  1  0.25000000  0.50000000  0.75000000  1
  Ni  Ni723  1  0.25000000  0.75000000  0.50000000  1
  Ni  Ni724  1  0.50000000  0.75000000  0.25000000  1
  Ni  Ni725  1  0.50000000  0.25000000  0.75000000  1
  O  O726  1  0.56560000  1.00000000  1.00000000  1
  O  O727  1  0.60472000  0.09143000  0.14243000  1
  O  O728  1  0.56205000  0.06979000  1.00000000  1
  O  O729  1  0.64545000  0.04858000  0.09605000  1
  O  O730  1  0.53771000  0.05100000  0.14243000  1
  O  O731  1  0.94900000  0.09143000  0.48671000  1
  O  O732  1  0.90857000  0.05100000  0.51329000  1
  O  O733  1  0.53771000  0.39528000  0.48671000  1
  O  O734  1  0.90857000  0.39528000  0.85757000  1
  O  O735  1  0.60472000  0.46229000  0.51329000  1
  O  O736  1  0.94900000  0.46229000  0.85757000  1
  O  O737  1  0.59687000  0.95142000  0.04747000  1
  O  O738  1  0.00000000  0.43440000  0.00000000  1
  O  O739  1  0.94900000  0.48671000  0.09143000  1
  O  O740  1  0.06979000  0.50774000  0.06979000  1
  O  O741  1  0.95253000  0.40313000  0.04858000  1
  O  O742  1  0.90857000  0.51329000  0.05100000  1
  O  O743  1  0.60472000  0.14243000  0.09143000  1
  O  O744  1  0.53771000  0.14243000  0.05100000  1
  O  O745  1  0.90857000  0.85757000  0.39528000  1
  O  O746  1  0.53771000  0.48671000  0.39528000  1
  O  O747  1  0.94900000  0.85757000  0.46229000  1
  O  O748  1  0.60472000  0.51329000  0.46229000  1
  O  O749  1  0.90395000  0.35455000  0.95142000  1
  O  O750  1  0.00000000  1.00000000  0.43440000  1
  O  O751  1  0.05100000  0.14243000  0.53771000  1
  O  O752  1  0.93021000  1.00000000  0.43795000  1
  O  O753  1  0.04747000  0.09605000  0.45060000  1
  O  O754  1  0.09143000  0.14243000  0.60472000  1
  O  O755  1  0.39528000  0.48671000  0.53771000  1
  O  O756  1  0.46229000  0.51329000  0.60472000  1
  O  O757  1  0.09143000  0.48671000  0.94900000  1
  O  O758  1  0.46229000  0.85757000  0.94900000  1
  O  O759  1  0.05100000  0.51329000  0.90857000  1
  O  O760  1  0.39528000  0.85757000  0.90857000  1
  O  O761  1  0.09605000  0.04747000  0.45060000  1
  O  O762  1  0.06979000  0.06979000  0.50774000  1
  O  O763  1  0.04858000  0.95253000  0.40313000  1
  O  O764  1  0.95142000  0.90395000  0.35455000  1
  O  O765  1  0.95253000  0.54940000  0.90395000  1
  O  O766  1  0.90395000  0.54940000  0.95253000  1
  O  O767  1  0.56205000  1.00000000  0.06979000  1
  O  O768  1  0.54940000  0.90395000  0.95253000  1
  O  O769  1  0.54940000  0.95253000  0.90395000  1
  O  O770  1  0.49226000  0.93021000  0.93021000  1
  O  O771  1  0.59687000  0.04747000  0.95142000  1
  O  O772  1  0.64545000  0.09605000  0.04858000  1
  O  O773  1  0.56560000  0.56560000  0.56560000  1
  O  O774  1  0.56205000  0.49226000  0.56205000  1
  O  O775  1  0.64545000  0.59687000  0.54940000  1
  O  O776  1  0.59687000  0.64545000  0.54940000  1
  O  O777  1  0.43795000  1.00000000  0.93021000  1
  O  O778  1  0.35455000  0.90395000  0.95142000  1
  O  O779  1  0.40313000  0.95253000  0.04858000  1
  O  O780  1  0.00000000  0.93021000  0.43795000  1
  O  O781  1  0.90395000  0.95142000  0.35455000  1
  O  O782  1  0.95253000  0.04858000  0.40313000  1
  O  O783  1  0.43795000  0.93021000  1.00000000  1
  O  O784  1  0.04747000  0.45060000  0.09605000  1
  O  O785  1  0.09605000  0.45060000  0.04747000  1
  O  O786  1  0.50774000  0.06979000  0.06979000  1
  O  O787  1  0.00000000  0.56560000  0.00000000  1
  O  O788  1  0.43440000  1.00000000  1.00000000  1
  O  O789  1  0.09143000  0.94900000  0.48671000  1
  O  O790  1  0.51329000  0.05100000  0.90857000  1
  O  O791  1  0.85757000  0.90857000  0.39528000  1
  O  O792  1  0.39528000  0.90857000  0.85757000  1
  O  O793  1  0.05100000  0.53771000  0.14243000  1
  O  O794  1  0.14243000  0.05100000  0.53771000  1
  O  O795  1  0.46229000  0.94900000  0.85757000  1
  O  O796  1  0.51329000  0.90857000  0.05100000  1
  O  O797  1  0.85757000  0.39528000  0.90857000  1
  O  O798  1  0.06979000  0.56205000  0.00000000  1
  O  O799  1  0.56205000  0.56205000  0.49226000  1
  O  O800  1  0.93021000  0.49226000  0.93021000  1
  O  O801  1  0.93021000  0.43795000  1.00000000  1
  O  O802  1  0.93021000  0.93021000  0.49226000  1
  O  O803  1  0.00000000  0.43795000  0.93021000  1
  O  O804  1  0.50774000  0.43795000  0.43795000  1
  O  O805  1  0.00000000  0.06979000  0.56205000  1
  O  O806  1  0.06979000  0.00000000  0.56205000  1
  O  O807  1  0.00000000  0.56205000  0.06979000  1
  O  O808  1  0.95142000  0.35455000  0.90395000  1
  O  O809  1  0.35455000  0.95142000  0.90395000  1
  O  O810  1  0.04747000  0.59687000  0.95142000  1
  O  O811  1  0.64545000  0.54940000  0.59687000  1
  O  O812  1  0.43440000  0.43440000  0.43440000  1
  O  O813  1  0.39528000  0.53771000  0.48671000  1
  O  O814  1  0.43795000  0.43795000  0.50774000  1
  O  O815  1  0.35455000  0.45060000  0.40313000  1
  O  O816  1  0.46229000  0.60472000  0.51329000  1
  O  O817  1  0.09143000  0.60472000  0.14243000  1
  O  O818  1  0.05100000  0.90857000  0.51329000  1
  O  O819  1  0.40313000  0.45060000  0.35455000  1
  O  O820  1  0.04858000  0.40313000  0.95253000  1
  O  O821  1  0.00000000  1.00000000  0.56560000  1
  O  O822  1  0.04747000  0.95142000  0.59687000  1
  O  O823  1  0.09605000  0.04858000  0.64545000  1
  O  O824  1  0.35455000  0.40313000  0.45060000  1
  O  O825  1  0.40313000  0.35455000  0.45060000  1
  O  O826  1  0.14243000  0.53771000  0.05100000  1
  O  O827  1  0.48671000  0.53771000  0.39528000  1
  O  O828  1  0.43795000  0.50774000  0.43795000  1
  O  O829  1  0.49226000  0.56205000  0.56205000  1
  O  O830  1  0.45060000  0.40313000  0.35455000  1
  O  O831  1  0.95253000  0.90395000  0.54940000  1
  O  O832  1  0.45060000  0.35455000  0.40313000  1
  O  O833  1  0.48671000  0.39528000  0.53771000  1
  O  O834  1  0.54940000  0.64545000  0.59687000  1
  O  O835  1  0.54940000  0.59687000  0.64545000  1
  O  O836  1  0.95142000  0.59687000  0.04747000  1
  O  O837  1  0.04858000  0.64545000  0.09605000  1
  O  O838  1  0.09605000  0.64545000  0.04858000  1
  O  O839  1  0.59687000  0.54940000  0.64545000  1
  O  O840  1  0.40313000  0.04858000  0.95253000  1
  O  O841  1  0.14243000  0.60472000  0.09143000  1
  O  O842  1  0.51329000  0.46229000  0.60472000  1
  O  O843  1  0.51329000  0.60472000  0.46229000  1
  O  O844  1  0.85757000  0.46229000  0.94900000  1
  O  O845  1  0.48671000  0.94900000  0.09143000  1
  O  O846  1  0.45060000  0.04747000  0.09605000  1
  O  O847  1  0.04858000  0.09605000  0.64545000  1
  O  O848  1  0.95142000  0.04747000  0.59687000  1
  O  O849  1  0.90395000  0.95253000  0.54940000  1
  O  O850  1  0.85757000  0.94900000  0.46229000  1
  O  O851  1  0.14243000  0.09143000  0.60472000  1
  O  O852  1  0.45060000  0.09605000  0.04747000  1
  O  O853  1  0.48671000  0.09143000  0.94900000  1
  Zr  Zr854  1  0.57130000  0.06455000  0.06455000  1
  Zr  Zr855  1  0.59968000  0.06436000  0.06436000  1
  Zr  Zr856  1  0.00000000  0.49325000  0.06455000  1
  Zr  Zr857  1  0.00000000  0.06455000  0.49325000  1
  Zr  Zr858  1  0.06455000  0.00000000  0.49325000  1
  Zr  Zr859  1  0.00000000  0.50675000  0.93545000  1
  Zr  Zr860  1  0.50675000  0.93545000  1.00000000  1
  Zr  Zr861  1  0.50675000  1.00000000  0.93545000  1
  Zr  Zr862  1  0.57130000  0.50675000  0.50675000  1
  Zr  Zr863  1  0.42870000  0.93545000  0.93545000  1
  Zr  Zr864  1  0.93545000  0.93545000  0.42870000  1
  Zr  Zr865  1  0.93545000  0.42870000  0.93545000  1
  Zr  Zr866  1  0.42870000  0.49325000  0.49325000  1
  Zr  Zr867  1  0.50675000  0.57130000  0.50675000  1
  Zr  Zr868  1  0.50675000  0.50675000  0.57130000  1
  Zr  Zr869  1  0.00000000  0.93545000  0.50675000  1
  Zr  Zr870  1  0.06455000  0.49325000  0.00000000  1
  Zr  Zr871  1  0.93545000  0.50675000  0.00000000  1
  Zr  Zr872  1  0.49325000  1.00000000  0.06455000  1
  Zr  Zr873  1  0.49325000  0.06455000  1.00000000  1
  Zr  Zr874  1  0.49325000  0.42870000  0.49325000  1
  Zr  Zr875  1  0.93545000  0.00000000  0.50675000  1
  Zr  Zr876  1  0.49325000  0.49325000  0.42870000  1
  Zr  Zr877  1  0.06455000  0.06455000  0.57130000  1
  Zr  Zr878  1  0.06455000  0.57130000  0.06455000  1
  Zr  Zr879  1  0.00000000  0.46468000  0.06436000  1
  Zr  Zr880  1  0.40032000  0.46468000  0.46468000  1
  Zr  Zr881  1  0.00000000  0.06436000  0.46468000  1
  Zr  Zr882  1  0.00000000  0.53532000  0.93564000  1
  Zr  Zr883  1  0.59968000  0.53532000  0.53532000  1
  Zr  Zr884  1  0.00000000  0.93564000  0.53532000  1
  Zr  Zr885  1  0.40032000  0.93564000  0.93564000  1
  Zr  Zr886  1  0.53532000  0.93564000  1.00000000  1
  Zr  Zr887  1  0.93564000  0.40032000  0.93564000  1
  Zr  Zr888  1  0.46468000  0.46468000  0.40032000  1
  Zr  Zr889  1  0.06436000  0.00000000  0.46468000  1
  Zr  Zr890  1  0.93564000  0.53532000  0.00000000  1
  Zr  Zr891  1  0.53532000  0.59968000  0.53532000  1
  Zr  Zr892  1  0.06436000  0.06436000  0.59968000  1
  Zr  Zr893  1  0.46468000  1.00000000  0.06436000  1
  Zr  Zr894  1  0.53532000  1.00000000  0.93564000  1
  Zr  Zr895  1  0.06436000  0.59968000  0.06436000  1
  Zr  Zr896  1  0.53532000  0.53532000  0.59968000  1
  Zr  Zr897  1  0.93564000  0.00000000  0.53532000  1
  Zr  Zr898  1  0.46468000  0.06436000  1.00000000  1
  Zr  Zr899  1  0.46468000  0.40032000  0.46468000  1
  Zr  Zr900  1  0.93564000  0.93564000  0.40032000  1
  Zr  Zr901  1  0.06436000  0.46468000  0.00000000  1
