# generated using pymatgen
data_Zr3Hg3H124C102S18(Cl3O11)2
_symmetry_space_group_name_H-M   'P 1'
_cell_length_a   33.64730000
_cell_length_b   33.64730000
_cell_length_c   33.64730000
_cell_angle_alpha   90.00000000
_cell_angle_beta   90.00000000
_cell_angle_gamma   90.00000000
_symmetry_Int_Tables_number   1
_chemical_formula_structural   Zr3Hg3H124C102S18(Cl3O11)2
_chemical_formula_sum   'Zr24 Hg24 H992 C816 S144 Cl48 O176'
_cell_volume   38093.48104866
_cell_formula_units_Z   8
loop_
 _symmetry_equiv_pos_site_id
 _symmetry_equiv_pos_as_xyz
  1  'x, y, z'
loop_
 _atom_site_type_symbol
 _atom_site_label
 _atom_site_symmetry_multiplicity
 _atom_site_fract_x
 _atom_site_fract_y
 _atom_site_fract_z
 _atom_site_occupancy
  Zr  Zr0  1  0.50169000  0.07346000  0.49820000  1
  Zr  Zr1  1  0.99831000  0.42654000  0.49820000  1
  Zr  Zr2  1  0.50169000  0.42654000  0.00180000  1
  Zr  Zr3  1  0.99831000  0.07346000  0.00180000  1
  Zr  Zr4  1  0.49820000  0.50169000  0.07346000  1
  Zr  Zr5  1  0.00180000  0.99831000  0.07346000  1
  Zr  Zr6  1  0.49820000  0.99831000  0.42654000  1
  Zr  Zr7  1  0.00180000  0.50169000  0.42654000  1
  Zr  Zr8  1  0.07346000  0.49820000  0.50169000  1
  Zr  Zr9  1  0.07346000  0.00180000  0.99831000  1
  Zr  Zr10  1  0.42654000  0.49820000  0.99831000  1
  Zr  Zr11  1  0.42654000  0.00180000  0.50169000  1
  Zr  Zr12  1  0.49831000  0.92654000  0.50180000  1
  Zr  Zr13  1  0.00169000  0.57346000  0.50180000  1
  Zr  Zr14  1  0.49831000  0.57346000  0.99820000  1
  Zr  Zr15  1  0.00169000  0.92654000  0.99820000  1
  Zr  Zr16  1  0.50180000  0.49831000  0.92654000  1
  Zr  Zr17  1  0.99820000  0.00169000  0.92654000  1
  Zr  Zr18  1  0.50180000  0.00169000  0.57346000  1
  Zr  Zr19  1  0.99820000  0.49831000  0.57346000  1
  Zr  Zr20  1  0.92654000  0.50180000  0.49831000  1
  Zr  Zr21  1  0.92654000  0.99820000  0.00169000  1
  Zr  Zr22  1  0.57346000  0.50180000  0.00169000  1
  Zr  Zr23  1  0.57346000  0.99820000  0.49831000  1
  Hg  Hg24  1  0.65763000  0.38376000  0.38919000  1
  Hg  Hg25  1  0.84237000  0.11624000  0.38919000  1
  Hg  Hg26  1  0.65763000  0.11624000  0.11081000  1
  Hg  Hg27  1  0.84237000  0.38376000  0.11081000  1
  Hg  Hg28  1  0.38919000  0.65763000  0.38376000  1
  Hg  Hg29  1  0.11081000  0.84237000  0.38376000  1
  Hg  Hg30  1  0.38919000  0.84237000  0.11624000  1
  Hg  Hg31  1  0.11081000  0.65763000  0.11624000  1
  Hg  Hg32  1  0.38376000  0.38919000  0.65763000  1
  Hg  Hg33  1  0.38376000  0.11081000  0.84237000  1
  Hg  Hg34  1  0.11624000  0.38919000  0.84237000  1
  Hg  Hg35  1  0.11624000  0.11081000  0.65763000  1
  Hg  Hg36  1  0.34237000  0.61624000  0.61081000  1
  Hg  Hg37  1  0.15763000  0.88376000  0.61081000  1
  Hg  Hg38  1  0.34237000  0.88376000  0.88919000  1
  Hg  Hg39  1  0.15763000  0.61624000  0.88919000  1
  Hg  Hg40  1  0.61081000  0.34237000  0.61624000  1
  Hg  Hg41  1  0.88919000  0.15763000  0.61624000  1
  Hg  Hg42  1  0.61081000  0.15763000  0.88376000  1
  Hg  Hg43  1  0.88919000  0.34237000  0.88376000  1
  Hg  Hg44  1  0.61624000  0.61081000  0.34237000  1
  Hg  Hg45  1  0.61624000  0.88919000  0.15763000  1
  Hg  Hg46  1  0.88376000  0.61081000  0.15763000  1
  Hg  Hg47  1  0.88376000  0.88919000  0.34237000  1
  H  H48  1  0.41670000  0.17020000  0.46990000  1
  H  H49  1  0.28340000  0.13950000  0.48990000  1
  H  H50  1  0.33040000  0.08910000  0.49740000  1
  H  H51  1  0.42140000  0.22700000  0.42360000  1
  H  H52  1  0.42250000  0.24000000  0.46950000  1
  H  H53  1  0.35420000  0.30050000  0.46320000  1
  H  H54  1  0.38200000  0.33800000  0.45450000  1
  H  H55  1  0.38370000  0.24270000  0.53170000  1
  H  H56  1  0.34450000  0.26860000  0.52440000  1
  H  H57  1  0.36910000  0.27360000  0.56480000  1
  H  H58  1  0.46180000  0.28330000  0.40690000  1
  H  H59  1  0.46290000  0.29430000  0.45300000  1
  H  H60  1  0.48800000  0.36100000  0.47690000  1
  H  H61  1  0.44140000  0.36920000  0.48160000  1
  H  H62  1  0.46940000  0.40190000  0.46150000  1
  H  H63  1  0.38090000  0.32160000  0.38920000  1
  H  H64  1  0.35490000  0.28270000  0.39740000  1
  H  H65  1  0.37770000  0.20980000  0.32140000  1
  H  H66  1  0.37210000  0.20950000  0.36860000  1
  H  H67  1  0.34270000  0.23500000  0.34130000  1
  H  H68  1  0.58970000  0.16820000  0.49290000  1
  H  H69  1  0.64330000  0.33110000  0.52600000  1
  H  H70  1  0.66450000  0.29230000  0.50920000  1
  H  H71  1  0.71600000  0.31090000  0.59790000  1
  H  H72  1  0.71800000  0.30340000  0.55100000  1
  H  H73  1  0.69660000  0.34230000  0.56790000  1
  H  H74  1  0.57950000  0.28650000  0.56300000  1
  H  H75  1  0.54940000  0.29170000  0.52670000  1
  H  H76  1  0.51890000  0.39010000  0.57530000  1
  H  H77  1  0.50130000  0.35380000  0.55010000  1
  H  H78  1  0.51850000  0.34630000  0.59380000  1
  H  H79  1  0.62360000  0.29560000  0.45160000  1
  H  H80  1  0.60090000  0.33370000  0.46850000  1
  H  H81  1  0.60170000  0.24120000  0.42020000  1
  H  H82  1  0.57000000  0.24970000  0.38580000  1
  H  H83  1  0.55840000  0.22170000  0.42250000  1
  H  H84  1  0.71850000  0.12980000  0.46900000  1
  H  H85  1  0.66780000  0.08160000  0.47450000  1
  H  H86  1  0.59580000  0.23150000  0.53530000  1
  H  H87  1  0.58550000  0.23270000  0.48850000  1
  H  H88  1  0.55810000  0.05380000  0.43750000  1
  H  H89  1  0.44190000  0.05810000  0.44190000  1
  H  H90  1  0.08330000  0.32980000  0.46990000  1
  H  H91  1  0.21660000  0.36050000  0.48990000  1
  H  H92  1  0.16960000  0.41090000  0.49740000  1
  H  H93  1  0.07860000  0.27300000  0.42360000  1
  H  H94  1  0.07750000  0.26000000  0.46950000  1
  H  H95  1  0.14580000  0.19950000  0.46320000  1
  H  H96  1  0.11800000  0.16200000  0.45450000  1
  H  H97  1  0.11630000  0.25730000  0.53170000  1
  H  H98  1  0.15550000  0.23140000  0.52440000  1
  H  H99  1  0.13090000  0.22640000  0.56480000  1
  H  H100  1  0.03820000  0.21670000  0.40690000  1
  H  H101  1  0.03710000  0.20570000  0.45300000  1
  H  H102  1  0.01200000  0.13900000  0.47690000  1
  H  H103  1  0.05860000  0.13080000  0.48160000  1
  H  H104  1  0.03060000  0.09810000  0.46150000  1
  H  H105  1  0.11910000  0.17840000  0.38920000  1
  H  H106  1  0.14510000  0.21730000  0.39740000  1
  H  H107  1  0.12230000  0.29020000  0.32140000  1
  H  H108  1  0.12790000  0.29050000  0.36860000  1
  H  H109  1  0.15730000  0.26500000  0.34130000  1
  H  H110  1  0.91030000  0.33180000  0.49290000  1
  H  H111  1  0.85670000  0.16890000  0.52600000  1
  H  H112  1  0.83550000  0.20770000  0.50920000  1
  H  H113  1  0.78400000  0.18910000  0.59790000  1
  H  H114  1  0.78200000  0.19660000  0.55100000  1
  H  H115  1  0.80340000  0.15770000  0.56790000  1
  H  H116  1  0.92050000  0.21350000  0.56300000  1
  H  H117  1  0.95060000  0.20830000  0.52670000  1
  H  H118  1  0.98110000  0.10990000  0.57530000  1
  H  H119  1  0.99870000  0.14620000  0.55010000  1
  H  H120  1  0.98150000  0.15370000  0.59380000  1
  H  H121  1  0.87640000  0.20440000  0.45160000  1
  H  H122  1  0.89910000  0.16630000  0.46850000  1
  H  H123  1  0.89830000  0.25880000  0.42020000  1
  H  H124  1  0.93000000  0.25030000  0.38580000  1
  H  H125  1  0.94160000  0.27830000  0.42250000  1
  H  H126  1  0.78150000  0.37020000  0.46900000  1
  H  H127  1  0.83220000  0.41840000  0.47450000  1
  H  H128  1  0.90420000  0.26850000  0.53530000  1
  H  H129  1  0.91450000  0.26730000  0.48850000  1
  H  H130  1  0.94190000  0.44620000  0.43750000  1
  H  H131  1  0.05810000  0.44190000  0.44190000  1
  H  H132  1  0.41670000  0.32980000  0.03010000  1
  H  H133  1  0.28340000  0.36050000  0.01010000  1
  H  H134  1  0.33040000  0.41090000  0.00260000  1
  H  H135  1  0.42140000  0.27300000  0.07640000  1
  H  H136  1  0.42250000  0.26000000  0.03050000  1
  H  H137  1  0.35420000  0.19950000  0.03680000  1
  H  H138  1  0.38200000  0.16200000  0.04550000  1
  H  H139  1  0.38370000  0.25730000  0.96830000  1
  H  H140  1  0.34450000  0.23140000  0.97560000  1
  H  H141  1  0.36910000  0.22640000  0.93520000  1
  H  H142  1  0.46180000  0.21670000  0.09310000  1
  H  H143  1  0.46290000  0.20570000  0.04700000  1
  H  H144  1  0.48800000  0.13900000  0.02310000  1
  H  H145  1  0.44140000  0.13080000  0.01840000  1
  H  H146  1  0.46940000  0.09810000  0.03850000  1
  H  H147  1  0.38090000  0.17840000  0.11080000  1
  H  H148  1  0.35490000  0.21730000  0.10260000  1
  H  H149  1  0.37770000  0.29020000  0.17860000  1
  H  H150  1  0.37210000  0.29050000  0.13140000  1
  H  H151  1  0.34270000  0.26500000  0.15870000  1
  H  H152  1  0.58970000  0.33180000  0.00710000  1
  H  H153  1  0.60790000  0.26900000  0.96380000  1
  H  H154  1  0.57840000  0.26700000  0.00140000  1
  H  H155  1  0.64330000  0.16890000  0.97400000  1
  H  H156  1  0.66450000  0.20770000  0.99080000  1
  H  H157  1  0.71600000  0.18910000  0.90210000  1
  H  H158  1  0.71800000  0.19660000  0.94900000  1
  H  H159  1  0.69660000  0.15770000  0.93210000  1
  H  H160  1  0.57950000  0.21350000  0.93700000  1
  H  H161  1  0.54940000  0.20830000  0.97330000  1
  H  H162  1  0.51890000  0.10990000  0.92470000  1
  H  H163  1  0.50130000  0.14620000  0.94990000  1
  H  H164  1  0.51850000  0.15370000  0.90620000  1
  H  H165  1  0.62360000  0.20440000  0.04840000  1
  H  H166  1  0.60090000  0.16630000  0.03150000  1
  H  H167  1  0.60170000  0.25880000  0.07980000  1
  H  H168  1  0.57000000  0.25030000  0.11420000  1
  H  H169  1  0.55840000  0.27830000  0.07750000  1
  H  H170  1  0.71850000  0.37020000  0.03100000  1
  H  H171  1  0.66780000  0.41840000  0.02550000  1
  H  H172  1  0.55810000  0.44620000  0.06250000  1
  H  H173  1  0.44190000  0.44190000  0.05810000  1
  H  H174  1  0.08330000  0.17020000  0.03010000  1
  H  H175  1  0.21660000  0.13950000  0.01010000  1
  H  H176  1  0.16960000  0.08910000  0.00260000  1
  H  H177  1  0.07860000  0.22700000  0.07640000  1
  H  H178  1  0.07750000  0.24000000  0.03050000  1
  H  H179  1  0.14580000  0.30050000  0.03680000  1
  H  H180  1  0.11800000  0.33800000  0.04550000  1
  H  H181  1  0.11630000  0.24270000  0.96830000  1
  H  H182  1  0.15550000  0.26860000  0.97560000  1
  H  H183  1  0.13090000  0.27360000  0.93520000  1
  H  H184  1  0.03820000  0.28330000  0.09310000  1
  H  H185  1  0.03710000  0.29430000  0.04700000  1
  H  H186  1  0.01200000  0.36100000  0.02310000  1
  H  H187  1  0.05860000  0.36920000  0.01840000  1
  H  H188  1  0.03060000  0.40190000  0.03850000  1
  H  H189  1  0.11910000  0.32160000  0.11080000  1
  H  H190  1  0.14510000  0.28270000  0.10260000  1
  H  H191  1  0.12230000  0.20980000  0.17860000  1
  H  H192  1  0.12790000  0.20950000  0.13140000  1
  H  H193  1  0.15730000  0.23500000  0.15870000  1
  H  H194  1  0.91030000  0.16820000  0.00710000  1
  H  H195  1  0.89210000  0.23100000  0.96380000  1
  H  H196  1  0.92160000  0.23300000  0.00140000  1
  H  H197  1  0.85670000  0.33110000  0.97400000  1
  H  H198  1  0.83550000  0.29230000  0.99080000  1
  H  H199  1  0.78400000  0.31090000  0.90210000  1
  H  H200  1  0.78200000  0.30340000  0.94900000  1
  H  H201  1  0.80340000  0.34230000  0.93210000  1
  H  H202  1  0.92050000  0.28650000  0.93700000  1
  H  H203  1  0.95060000  0.29170000  0.97330000  1
  H  H204  1  0.98110000  0.39010000  0.92470000  1
  H  H205  1  0.99870000  0.35380000  0.94990000  1
  H  H206  1  0.98150000  0.34630000  0.90620000  1
  H  H207  1  0.87640000  0.29560000  0.04840000  1
  H  H208  1  0.89910000  0.33370000  0.03150000  1
  H  H209  1  0.89830000  0.24120000  0.07980000  1
  H  H210  1  0.93000000  0.24970000  0.11420000  1
  H  H211  1  0.94160000  0.22170000  0.07750000  1
  H  H212  1  0.78150000  0.12980000  0.03100000  1
  H  H213  1  0.83220000  0.08160000  0.02550000  1
  H  H214  1  0.94190000  0.05380000  0.06250000  1
  H  H215  1  0.05810000  0.05810000  0.05810000  1
  H  H216  1  0.46990000  0.41670000  0.17020000  1
  H  H217  1  0.48990000  0.28340000  0.13950000  1
  H  H218  1  0.49740000  0.33040000  0.08910000  1
  H  H219  1  0.42360000  0.42140000  0.22700000  1
  H  H220  1  0.46950000  0.42250000  0.24000000  1
  H  H221  1  0.46320000  0.35420000  0.30050000  1
  H  H222  1  0.45450000  0.38200000  0.33800000  1
  H  H223  1  0.53170000  0.38370000  0.24270000  1
  H  H224  1  0.52440000  0.34450000  0.26860000  1
  H  H225  1  0.56480000  0.36910000  0.27360000  1
  H  H226  1  0.40690000  0.46180000  0.28330000  1
  H  H227  1  0.45300000  0.46290000  0.29430000  1
  H  H228  1  0.47690000  0.48800000  0.36100000  1
  H  H229  1  0.48160000  0.44140000  0.36920000  1
  H  H230  1  0.46150000  0.46940000  0.40190000  1
  H  H231  1  0.38920000  0.38090000  0.32160000  1
  H  H232  1  0.39740000  0.35490000  0.28270000  1
  H  H233  1  0.32140000  0.37770000  0.20980000  1
  H  H234  1  0.36860000  0.37210000  0.20950000  1
  H  H235  1  0.34130000  0.34270000  0.23500000  1
  H  H236  1  0.49290000  0.58970000  0.16820000  1
  H  H237  1  0.52600000  0.64330000  0.33110000  1
  H  H238  1  0.50920000  0.66450000  0.29230000  1
  H  H239  1  0.59790000  0.71600000  0.31090000  1
  H  H240  1  0.55100000  0.71800000  0.30340000  1
  H  H241  1  0.56790000  0.69660000  0.34230000  1
  H  H242  1  0.56300000  0.57950000  0.28650000  1
  H  H243  1  0.52670000  0.54940000  0.29170000  1
  H  H244  1  0.57530000  0.51890000  0.39010000  1
  H  H245  1  0.55010000  0.50130000  0.35380000  1
  H  H246  1  0.59380000  0.51850000  0.34630000  1
  H  H247  1  0.45160000  0.62360000  0.29560000  1
  H  H248  1  0.46850000  0.60090000  0.33370000  1
  H  H249  1  0.42020000  0.60170000  0.24120000  1
  H  H250  1  0.38580000  0.57000000  0.24970000  1
  H  H251  1  0.42250000  0.55840000  0.22170000  1
  H  H252  1  0.46900000  0.71850000  0.12980000  1
  H  H253  1  0.47450000  0.66780000  0.08160000  1
  H  H254  1  0.53530000  0.59580000  0.23150000  1
  H  H255  1  0.48850000  0.58550000  0.23270000  1
  H  H256  1  0.43750000  0.55810000  0.05380000  1
  H  H257  1  0.03010000  0.08330000  0.17020000  1
  H  H258  1  0.01010000  0.21660000  0.13950000  1
  H  H259  1  0.00260000  0.16960000  0.08910000  1
  H  H260  1  0.07640000  0.07860000  0.22700000  1
  H  H261  1  0.03050000  0.07750000  0.24000000  1
  H  H262  1  0.03680000  0.14580000  0.30050000  1
  H  H263  1  0.04550000  0.11800000  0.33800000  1
  H  H264  1  0.96830000  0.11630000  0.24270000  1
  H  H265  1  0.97560000  0.15550000  0.26860000  1
  H  H266  1  0.93520000  0.13090000  0.27360000  1
  H  H267  1  0.09310000  0.03820000  0.28330000  1
  H  H268  1  0.04700000  0.03710000  0.29430000  1
  H  H269  1  0.02310000  0.01200000  0.36100000  1
  H  H270  1  0.01840000  0.05860000  0.36920000  1
  H  H271  1  0.03850000  0.03060000  0.40190000  1
  H  H272  1  0.11080000  0.11910000  0.32160000  1
  H  H273  1  0.10260000  0.14510000  0.28270000  1
  H  H274  1  0.17860000  0.12230000  0.20980000  1
  H  H275  1  0.13140000  0.12790000  0.20950000  1
  H  H276  1  0.15870000  0.15730000  0.23500000  1
  H  H277  1  0.00710000  0.91030000  0.16820000  1
  H  H278  1  0.96380000  0.89210000  0.23100000  1
  H  H279  1  0.00140000  0.92160000  0.23300000  1
  H  H280  1  0.97400000  0.85670000  0.33110000  1
  H  H281  1  0.99080000  0.83550000  0.29230000  1
  H  H282  1  0.90210000  0.78400000  0.31090000  1
  H  H283  1  0.94900000  0.78200000  0.30340000  1
  H  H284  1  0.93210000  0.80340000  0.34230000  1
  H  H285  1  0.93700000  0.92050000  0.28650000  1
  H  H286  1  0.97330000  0.95060000  0.29170000  1
  H  H287  1  0.92470000  0.98110000  0.39010000  1
  H  H288  1  0.94990000  0.99870000  0.35380000  1
  H  H289  1  0.90620000  0.98150000  0.34630000  1
  H  H290  1  0.04840000  0.87640000  0.29560000  1
  H  H291  1  0.03150000  0.89910000  0.33370000  1
  H  H292  1  0.07980000  0.89830000  0.24120000  1
  H  H293  1  0.11420000  0.93000000  0.24970000  1
  H  H294  1  0.07750000  0.94160000  0.22170000  1
  H  H295  1  0.03100000  0.78150000  0.12980000  1
  H  H296  1  0.02550000  0.83220000  0.08160000  1
  H  H297  1  0.06250000  0.94190000  0.05380000  1
  H  H298  1  0.46990000  0.08330000  0.32980000  1
  H  H299  1  0.48990000  0.21660000  0.36050000  1
  H  H300  1  0.49740000  0.16960000  0.41090000  1
  H  H301  1  0.42360000  0.07860000  0.27300000  1
  H  H302  1  0.46950000  0.07750000  0.26000000  1
  H  H303  1  0.46320000  0.14580000  0.19950000  1
  H  H304  1  0.45450000  0.11800000  0.16200000  1
  H  H305  1  0.53170000  0.11630000  0.25730000  1
  H  H306  1  0.52440000  0.15550000  0.23140000  1
  H  H307  1  0.56480000  0.13090000  0.22640000  1
  H  H308  1  0.40690000  0.03820000  0.21670000  1
  H  H309  1  0.45300000  0.03710000  0.20570000  1
  H  H310  1  0.47690000  0.01200000  0.13900000  1
  H  H311  1  0.48160000  0.05860000  0.13080000  1
  H  H312  1  0.46150000  0.03060000  0.09810000  1
  H  H313  1  0.38920000  0.11910000  0.17840000  1
  H  H314  1  0.39740000  0.14510000  0.21730000  1
  H  H315  1  0.32140000  0.12230000  0.29020000  1
  H  H316  1  0.36860000  0.12790000  0.29050000  1
  H  H317  1  0.34130000  0.15730000  0.26500000  1
  H  H318  1  0.49290000  0.91030000  0.33180000  1
  H  H319  1  0.52600000  0.85670000  0.16890000  1
  H  H320  1  0.50920000  0.83550000  0.20770000  1
  H  H321  1  0.59790000  0.78400000  0.18910000  1
  H  H322  1  0.55100000  0.78200000  0.19660000  1
  H  H323  1  0.56790000  0.80340000  0.15770000  1
  H  H324  1  0.56300000  0.92050000  0.21350000  1
  H  H325  1  0.52670000  0.95060000  0.20830000  1
  H  H326  1  0.57530000  0.98110000  0.10990000  1
  H  H327  1  0.55010000  0.99870000  0.14620000  1
  H  H328  1  0.59380000  0.98150000  0.15370000  1
  H  H329  1  0.45160000  0.87640000  0.20440000  1
  H  H330  1  0.46850000  0.89910000  0.16630000  1
  H  H331  1  0.42020000  0.89830000  0.25880000  1
  H  H332  1  0.38580000  0.93000000  0.25030000  1
  H  H333  1  0.42250000  0.94160000  0.27830000  1
  H  H334  1  0.46900000  0.78150000  0.37020000  1
  H  H335  1  0.47450000  0.83220000  0.41840000  1
  H  H336  1  0.53530000  0.90420000  0.26850000  1
  H  H337  1  0.48850000  0.91450000  0.26730000  1
  H  H338  1  0.43750000  0.94190000  0.44620000  1
  H  H339  1  0.03010000  0.41670000  0.32980000  1
  H  H340  1  0.01010000  0.28340000  0.36050000  1
  H  H341  1  0.00260000  0.33040000  0.41090000  1
  H  H342  1  0.07640000  0.42140000  0.27300000  1
  H  H343  1  0.03050000  0.42250000  0.26000000  1
  H  H344  1  0.03680000  0.35420000  0.19950000  1
  H  H345  1  0.04550000  0.38200000  0.16200000  1
  H  H346  1  0.96830000  0.38370000  0.25730000  1
  H  H347  1  0.97560000  0.34450000  0.23140000  1
  H  H348  1  0.93520000  0.36910000  0.22640000  1
  H  H349  1  0.09310000  0.46180000  0.21670000  1
  H  H350  1  0.04700000  0.46290000  0.20570000  1
  H  H351  1  0.02310000  0.48800000  0.13900000  1
  H  H352  1  0.01840000  0.44140000  0.13080000  1
  H  H353  1  0.03850000  0.46940000  0.09810000  1
  H  H354  1  0.11080000  0.38090000  0.17840000  1
  H  H355  1  0.10260000  0.35490000  0.21730000  1
  H  H356  1  0.17860000  0.37770000  0.29020000  1
  H  H357  1  0.13140000  0.37210000  0.29050000  1
  H  H358  1  0.15870000  0.34270000  0.26500000  1
  H  H359  1  0.00710000  0.58970000  0.33180000  1
  H  H360  1  0.97400000  0.64330000  0.16890000  1
  H  H361  1  0.99080000  0.66450000  0.20770000  1
  H  H362  1  0.90210000  0.71600000  0.18910000  1
  H  H363  1  0.94900000  0.71800000  0.19660000  1
  H  H364  1  0.93210000  0.69660000  0.15770000  1
  H  H365  1  0.93700000  0.57950000  0.21350000  1
  H  H366  1  0.97330000  0.54940000  0.20830000  1
  H  H367  1  0.92470000  0.51890000  0.10990000  1
  H  H368  1  0.94990000  0.50130000  0.14620000  1
  H  H369  1  0.90620000  0.51850000  0.15370000  1
  H  H370  1  0.04840000  0.62360000  0.20440000  1
  H  H371  1  0.03150000  0.60090000  0.16630000  1
  H  H372  1  0.07980000  0.60170000  0.25880000  1
  H  H373  1  0.11420000  0.57000000  0.25030000  1
  H  H374  1  0.07750000  0.55840000  0.27830000  1
  H  H375  1  0.03100000  0.71850000  0.37020000  1
  H  H376  1  0.02550000  0.66780000  0.41840000  1
  H  H377  1  0.96470000  0.59580000  0.26850000  1
  H  H378  1  0.01150000  0.58550000  0.26730000  1
  H  H379  1  0.06250000  0.55810000  0.44620000  1
  H  H380  1  0.17020000  0.46990000  0.41670000  1
  H  H381  1  0.13950000  0.48990000  0.28340000  1
  H  H382  1  0.08910000  0.49740000  0.33040000  1
  H  H383  1  0.22700000  0.42360000  0.42140000  1
  H  H384  1  0.24000000  0.46950000  0.42250000  1
  H  H385  1  0.30050000  0.46320000  0.35420000  1
  H  H386  1  0.33800000  0.45450000  0.38200000  1
  H  H387  1  0.24270000  0.53170000  0.38370000  1
  H  H388  1  0.26860000  0.52440000  0.34450000  1
  H  H389  1  0.27360000  0.56480000  0.36910000  1
  H  H390  1  0.28330000  0.40690000  0.46180000  1
  H  H391  1  0.29430000  0.45300000  0.46290000  1
  H  H392  1  0.36100000  0.47690000  0.48800000  1
  H  H393  1  0.36920000  0.48160000  0.44140000  1
  H  H394  1  0.40190000  0.46150000  0.46940000  1
  H  H395  1  0.32160000  0.38920000  0.38090000  1
  H  H396  1  0.28270000  0.39740000  0.35490000  1
  H  H397  1  0.20980000  0.32140000  0.37770000  1
  H  H398  1  0.20950000  0.36860000  0.37210000  1
  H  H399  1  0.23500000  0.34130000  0.34270000  1
  H  H400  1  0.16820000  0.49290000  0.58970000  1
  H  H401  1  0.23100000  0.53620000  0.60790000  1
  H  H402  1  0.23300000  0.49860000  0.57840000  1
  H  H403  1  0.33110000  0.52600000  0.64330000  1
  H  H404  1  0.29230000  0.50920000  0.66450000  1
  H  H405  1  0.31090000  0.59790000  0.71600000  1
  H  H406  1  0.30340000  0.55100000  0.71800000  1
  H  H407  1  0.34230000  0.56790000  0.69660000  1
  H  H408  1  0.28650000  0.56300000  0.57950000  1
  H  H409  1  0.29170000  0.52670000  0.54940000  1
  H  H410  1  0.39010000  0.57530000  0.51890000  1
  H  H411  1  0.35380000  0.55010000  0.50130000  1
  H  H412  1  0.34630000  0.59380000  0.51850000  1
  H  H413  1  0.29560000  0.45160000  0.62360000  1
  H  H414  1  0.33370000  0.46850000  0.60090000  1
  H  H415  1  0.24120000  0.42020000  0.60170000  1
  H  H416  1  0.24970000  0.38580000  0.57000000  1
  H  H417  1  0.22170000  0.42250000  0.55840000  1
  H  H418  1  0.12980000  0.46900000  0.71850000  1
  H  H419  1  0.08160000  0.47450000  0.66780000  1
  H  H420  1  0.05380000  0.43750000  0.55810000  1
  H  H421  1  0.17020000  0.03010000  0.08330000  1
  H  H422  1  0.13950000  0.01010000  0.21660000  1
  H  H423  1  0.08910000  0.00260000  0.16960000  1
  H  H424  1  0.22700000  0.07640000  0.07860000  1
  H  H425  1  0.24000000  0.03050000  0.07750000  1
  H  H426  1  0.30050000  0.03680000  0.14580000  1
  H  H427  1  0.33800000  0.04550000  0.11800000  1
  H  H428  1  0.24270000  0.96830000  0.11630000  1
  H  H429  1  0.26860000  0.97560000  0.15550000  1
  H  H430  1  0.27360000  0.93520000  0.13090000  1
  H  H431  1  0.28330000  0.09310000  0.03820000  1
  H  H432  1  0.29430000  0.04700000  0.03710000  1
  H  H433  1  0.36100000  0.02310000  0.01200000  1
  H  H434  1  0.36920000  0.01840000  0.05860000  1
  H  H435  1  0.40190000  0.03850000  0.03060000  1
  H  H436  1  0.32160000  0.11080000  0.11910000  1
  H  H437  1  0.28270000  0.10260000  0.14510000  1
  H  H438  1  0.20980000  0.17860000  0.12230000  1
  H  H439  1  0.20950000  0.13140000  0.12790000  1
  H  H440  1  0.23500000  0.15870000  0.15730000  1
  H  H441  1  0.16820000  0.00710000  0.91030000  1
  H  H442  1  0.33110000  0.97400000  0.85670000  1
  H  H443  1  0.29230000  0.99080000  0.83550000  1
  H  H444  1  0.31090000  0.90210000  0.78400000  1
  H  H445  1  0.30340000  0.94900000  0.78200000  1
  H  H446  1  0.34230000  0.93210000  0.80340000  1
  H  H447  1  0.28650000  0.93700000  0.92050000  1
  H  H448  1  0.29170000  0.97330000  0.95060000  1
  H  H449  1  0.39010000  0.92470000  0.98110000  1
  H  H450  1  0.35380000  0.94990000  0.99870000  1
  H  H451  1  0.34630000  0.90620000  0.98150000  1
  H  H452  1  0.29560000  0.04840000  0.87640000  1
  H  H453  1  0.33370000  0.03150000  0.89910000  1
  H  H454  1  0.24120000  0.07980000  0.89830000  1
  H  H455  1  0.24970000  0.11420000  0.93000000  1
  H  H456  1  0.22170000  0.07750000  0.94160000  1
  H  H457  1  0.12980000  0.03100000  0.78150000  1
  H  H458  1  0.08160000  0.02550000  0.83220000  1
  H  H459  1  0.23150000  0.96470000  0.90420000  1
  H  H460  1  0.23270000  0.01150000  0.91450000  1
  H  H461  1  0.05380000  0.06250000  0.94190000  1
  H  H462  1  0.32980000  0.46990000  0.08330000  1
  H  H463  1  0.36050000  0.48990000  0.21660000  1
  H  H464  1  0.41090000  0.49740000  0.16960000  1
  H  H465  1  0.27300000  0.42360000  0.07860000  1
  H  H466  1  0.26000000  0.46950000  0.07750000  1
  H  H467  1  0.19950000  0.46320000  0.14580000  1
  H  H468  1  0.16200000  0.45450000  0.11800000  1
  H  H469  1  0.25730000  0.53170000  0.11630000  1
  H  H470  1  0.23140000  0.52440000  0.15550000  1
  H  H471  1  0.22640000  0.56480000  0.13090000  1
  H  H472  1  0.21670000  0.40690000  0.03820000  1
  H  H473  1  0.20570000  0.45300000  0.03710000  1
  H  H474  1  0.13900000  0.47690000  0.01200000  1
  H  H475  1  0.13080000  0.48160000  0.05860000  1
  H  H476  1  0.09810000  0.46150000  0.03060000  1
  H  H477  1  0.17840000  0.38920000  0.11910000  1
  H  H478  1  0.21730000  0.39740000  0.14510000  1
  H  H479  1  0.29050000  0.36860000  0.12790000  1
  H  H480  1  0.26500000  0.34130000  0.15730000  1
  H  H481  1  0.33180000  0.49290000  0.91030000  1
  H  H482  1  0.26900000  0.53620000  0.89210000  1
  H  H483  1  0.26700000  0.49860000  0.92160000  1
  H  H484  1  0.16890000  0.52600000  0.85670000  1
  H  H485  1  0.20770000  0.50920000  0.83550000  1
  H  H486  1  0.18910000  0.59790000  0.78400000  1
  H  H487  1  0.19660000  0.55100000  0.78200000  1
  H  H488  1  0.15770000  0.56790000  0.80340000  1
  H  H489  1  0.21350000  0.56300000  0.92050000  1
  H  H490  1  0.20830000  0.52670000  0.95060000  1
  H  H491  1  0.10990000  0.57530000  0.98110000  1
  H  H492  1  0.14620000  0.55010000  0.99870000  1
  H  H493  1  0.15370000  0.59380000  0.98150000  1
  H  H494  1  0.20440000  0.45160000  0.87640000  1
  H  H495  1  0.16630000  0.46850000  0.89910000  1
  H  H496  1  0.25880000  0.42020000  0.89830000  1
  H  H497  1  0.25030000  0.38580000  0.93000000  1
  H  H498  1  0.27830000  0.42250000  0.94160000  1
  H  H499  1  0.29530000  0.32440000  0.11020000  1
  H  H500  1  0.37020000  0.46900000  0.78150000  1
  H  H501  1  0.41840000  0.47450000  0.83220000  1
  H  H502  1  0.44620000  0.43750000  0.94190000  1
  H  H503  1  0.32980000  0.03010000  0.41670000  1
  H  H504  1  0.36050000  0.01010000  0.28340000  1
  H  H505  1  0.41090000  0.00260000  0.33040000  1
  H  H506  1  0.27300000  0.07640000  0.42140000  1
  H  H507  1  0.26000000  0.03050000  0.42250000  1
  H  H508  1  0.19950000  0.03680000  0.35420000  1
  H  H509  1  0.16200000  0.04550000  0.38200000  1
  H  H510  1  0.25730000  0.96830000  0.38370000  1
  H  H511  1  0.23140000  0.97560000  0.34450000  1
  H  H512  1  0.22640000  0.93520000  0.36910000  1
  H  H513  1  0.21670000  0.09310000  0.46180000  1
  H  H514  1  0.20570000  0.04700000  0.46290000  1
  H  H515  1  0.13900000  0.02310000  0.48800000  1
  H  H516  1  0.13080000  0.01840000  0.44140000  1
  H  H517  1  0.09810000  0.03850000  0.46940000  1
  H  H518  1  0.17840000  0.11080000  0.38090000  1
  H  H519  1  0.21730000  0.10260000  0.35490000  1
  H  H520  1  0.29020000  0.17860000  0.37770000  1
  H  H521  1  0.29050000  0.13140000  0.37210000  1
  H  H522  1  0.26500000  0.15870000  0.34270000  1
  H  H523  1  0.33180000  0.00710000  0.58970000  1
  H  H524  1  0.26900000  0.96380000  0.60790000  1
  H  H525  1  0.26700000  0.00140000  0.57840000  1
  H  H526  1  0.16890000  0.97400000  0.64330000  1
  H  H527  1  0.20770000  0.99080000  0.66450000  1
  H  H528  1  0.18910000  0.90210000  0.71600000  1
  H  H529  1  0.19660000  0.94900000  0.71800000  1
  H  H530  1  0.15770000  0.93210000  0.69660000  1
  H  H531  1  0.21350000  0.93700000  0.57950000  1
  H  H532  1  0.20830000  0.97330000  0.54940000  1
  H  H533  1  0.10990000  0.92470000  0.51890000  1
  H  H534  1  0.14620000  0.94990000  0.50130000  1
  H  H535  1  0.15370000  0.90620000  0.51850000  1
  H  H536  1  0.20440000  0.04840000  0.62360000  1
  H  H537  1  0.16630000  0.03150000  0.60090000  1
  H  H538  1  0.25880000  0.07980000  0.60170000  1
  H  H539  1  0.25030000  0.11420000  0.57000000  1
  H  H540  1  0.27830000  0.07750000  0.55840000  1
  H  H541  1  0.37020000  0.03100000  0.71850000  1
  H  H542  1  0.41840000  0.02550000  0.66780000  1
  H  H543  1  0.44620000  0.06250000  0.55810000  1
  H  H544  1  0.58330000  0.82980000  0.53010000  1
  H  H545  1  0.71660000  0.86050000  0.51010000  1
  H  H546  1  0.66960000  0.91090000  0.50260000  1
  H  H547  1  0.57860000  0.77300000  0.57640000  1
  H  H548  1  0.57750000  0.76000000  0.53050000  1
  H  H549  1  0.64580000  0.69950000  0.53680000  1
  H  H550  1  0.61800000  0.66200000  0.54550000  1
  H  H551  1  0.61630000  0.75730000  0.46830000  1
  H  H552  1  0.65550000  0.73140000  0.47560000  1
  H  H553  1  0.63090000  0.72640000  0.43520000  1
  H  H554  1  0.53820000  0.71670000  0.59310000  1
  H  H555  1  0.53710000  0.70570000  0.54700000  1
  H  H556  1  0.51200000  0.63900000  0.52310000  1
  H  H557  1  0.55860000  0.63080000  0.51840000  1
  H  H558  1  0.53060000  0.59810000  0.53850000  1
  H  H559  1  0.61910000  0.67840000  0.61080000  1
  H  H560  1  0.64510000  0.71730000  0.60260000  1
  H  H561  1  0.62230000  0.79020000  0.67860000  1
  H  H562  1  0.62790000  0.79050000  0.63140000  1
  H  H563  1  0.65730000  0.76500000  0.65870000  1
  H  H564  1  0.41030000  0.83180000  0.50710000  1
  H  H565  1  0.39210000  0.76900000  0.46380000  1
  H  H566  1  0.42160000  0.76700000  0.50140000  1
  H  H567  1  0.35670000  0.66890000  0.47400000  1
  H  H568  1  0.33550000  0.70770000  0.49080000  1
  H  H569  1  0.28400000  0.68910000  0.40210000  1
  H  H570  1  0.28200000  0.69660000  0.44900000  1
  H  H571  1  0.30340000  0.65770000  0.43210000  1
  H  H572  1  0.42050000  0.71350000  0.43700000  1
  H  H573  1  0.45060000  0.70830000  0.47330000  1
  H  H574  1  0.48110000  0.60990000  0.42470000  1
  H  H575  1  0.49870000  0.64620000  0.44990000  1
  H  H576  1  0.48150000  0.65370000  0.40620000  1
  H  H577  1  0.37640000  0.70440000  0.54840000  1
  H  H578  1  0.39910000  0.66630000  0.53150000  1
  H  H579  1  0.39830000  0.75880000  0.57980000  1
  H  H580  1  0.43000000  0.75030000  0.61420000  1
  H  H581  1  0.44160000  0.77830000  0.57750000  1
  H  H582  1  0.28150000  0.87020000  0.53100000  1
  H  H583  1  0.33220000  0.91840000  0.52550000  1
  H  H584  1  0.44190000  0.94620000  0.56250000  1
  H  H585  1  0.55810000  0.94190000  0.55810000  1
  H  H586  1  0.91670000  0.67020000  0.53010000  1
  H  H587  1  0.78340000  0.63950000  0.51010000  1
  H  H588  1  0.83040000  0.58910000  0.50260000  1
  H  H589  1  0.92140000  0.72700000  0.57640000  1
  H  H590  1  0.92250000  0.74000000  0.53050000  1
  H  H591  1  0.85420000  0.80050000  0.53680000  1
  H  H592  1  0.88200000  0.83800000  0.54550000  1
  H  H593  1  0.88370000  0.74270000  0.46830000  1
  H  H594  1  0.84450000  0.76860000  0.47560000  1
  H  H595  1  0.86910000  0.77360000  0.43520000  1
  H  H596  1  0.96180000  0.78330000  0.59310000  1
  H  H597  1  0.96290000  0.79430000  0.54700000  1
  H  H598  1  0.98800000  0.86100000  0.52310000  1
  H  H599  1  0.94140000  0.86920000  0.51840000  1
  H  H600  1  0.96940000  0.90190000  0.53850000  1
  H  H601  1  0.88090000  0.82160000  0.61080000  1
  H  H602  1  0.85490000  0.78270000  0.60260000  1
  H  H603  1  0.87770000  0.70980000  0.67860000  1
  H  H604  1  0.87210000  0.70950000  0.63140000  1
  H  H605  1  0.84270000  0.73500000  0.65870000  1
  H  H606  1  0.08970000  0.66820000  0.50710000  1
  H  H607  1  0.10790000  0.73100000  0.46380000  1
  H  H608  1  0.07840000  0.73300000  0.50140000  1
  H  H609  1  0.14330000  0.83110000  0.47400000  1
  H  H610  1  0.16450000  0.79230000  0.49080000  1
  H  H611  1  0.21600000  0.81090000  0.40210000  1
  H  H612  1  0.21800000  0.80340000  0.44900000  1
  H  H613  1  0.19660000  0.84230000  0.43210000  1
  H  H614  1  0.07950000  0.78650000  0.43700000  1
  H  H615  1  0.04940000  0.79170000  0.47330000  1
  H  H616  1  0.01890000  0.89010000  0.42470000  1
  H  H617  1  0.00130000  0.85380000  0.44990000  1
  H  H618  1  0.01850000  0.84630000  0.40620000  1
  H  H619  1  0.12360000  0.79560000  0.54840000  1
  H  H620  1  0.10090000  0.83370000  0.53150000  1
  H  H621  1  0.10170000  0.74120000  0.57980000  1
  H  H622  1  0.07000000  0.74970000  0.61420000  1
  H  H623  1  0.05840000  0.72170000  0.57750000  1
  H  H624  1  0.21850000  0.62980000  0.53100000  1
  H  H625  1  0.16780000  0.58160000  0.52550000  1
  H  H626  1  0.05810000  0.55380000  0.56250000  1
  H  H627  1  0.94190000  0.55810000  0.55810000  1
  H  H628  1  0.58330000  0.67020000  0.96990000  1
  H  H629  1  0.71660000  0.63950000  0.98990000  1
  H  H630  1  0.66960000  0.58910000  0.99740000  1
  H  H631  1  0.57860000  0.72700000  0.92360000  1
  H  H632  1  0.57750000  0.74000000  0.96950000  1
  H  H633  1  0.64580000  0.80050000  0.96320000  1
  H  H634  1  0.61800000  0.83800000  0.95450000  1
  H  H635  1  0.61630000  0.74270000  0.03170000  1
  H  H636  1  0.65550000  0.76860000  0.02440000  1
  H  H637  1  0.63090000  0.77360000  0.06480000  1
  H  H638  1  0.53820000  0.78330000  0.90690000  1
  H  H639  1  0.53710000  0.79430000  0.95300000  1
  H  H640  1  0.51200000  0.86100000  0.97690000  1
  H  H641  1  0.55860000  0.86920000  0.98160000  1
  H  H642  1  0.53060000  0.90190000  0.96150000  1
  H  H643  1  0.61910000  0.82160000  0.88920000  1
  H  H644  1  0.64510000  0.78270000  0.89740000  1
  H  H645  1  0.62230000  0.70980000  0.82140000  1
  H  H646  1  0.62790000  0.70950000  0.86860000  1
  H  H647  1  0.65730000  0.73500000  0.84130000  1
  H  H648  1  0.41030000  0.66820000  0.99290000  1
  H  H649  1  0.42160000  0.73300000  0.99860000  1
  H  H650  1  0.35670000  0.83110000  0.02600000  1
  H  H651  1  0.33550000  0.79230000  0.00920000  1
  H  H652  1  0.28400000  0.81090000  0.09790000  1
  H  H653  1  0.28200000  0.80340000  0.05100000  1
  H  H654  1  0.30340000  0.84230000  0.06790000  1
  H  H655  1  0.42050000  0.78650000  0.06300000  1
  H  H656  1  0.45060000  0.79170000  0.02670000  1
  H  H657  1  0.48110000  0.89010000  0.07530000  1
  H  H658  1  0.49870000  0.85380000  0.05010000  1
  H  H659  1  0.48150000  0.84630000  0.09380000  1
  H  H660  1  0.37640000  0.79560000  0.95160000  1
  H  H661  1  0.39910000  0.83370000  0.96850000  1
  H  H662  1  0.39830000  0.74120000  0.92020000  1
  H  H663  1  0.43000000  0.74970000  0.88580000  1
  H  H664  1  0.44160000  0.72170000  0.92250000  1
  H  H665  1  0.28150000  0.62980000  0.96900000  1
  H  H666  1  0.33220000  0.58160000  0.97450000  1
  H  H667  1  0.40420000  0.73150000  0.03530000  1
  H  H668  1  0.44190000  0.55380000  0.93750000  1
  H  H669  1  0.55810000  0.55810000  0.94190000  1
  H  H670  1  0.91670000  0.82980000  0.96990000  1
  H  H671  1  0.78340000  0.86050000  0.98990000  1
  H  H672  1  0.83040000  0.91090000  0.99740000  1
  H  H673  1  0.92140000  0.77300000  0.92360000  1
  H  H674  1  0.92250000  0.76000000  0.96950000  1
  H  H675  1  0.85420000  0.69950000  0.96320000  1
  H  H676  1  0.88200000  0.66200000  0.95450000  1
  H  H677  1  0.88370000  0.75730000  0.03170000  1
  H  H678  1  0.84450000  0.73140000  0.02440000  1
  H  H679  1  0.86910000  0.72640000  0.06480000  1
  H  H680  1  0.96180000  0.71670000  0.90690000  1
  H  H681  1  0.96290000  0.70570000  0.95300000  1
  H  H682  1  0.98800000  0.63900000  0.97690000  1
  H  H683  1  0.94140000  0.63080000  0.98160000  1
  H  H684  1  0.96940000  0.59810000  0.96150000  1
  H  H685  1  0.88090000  0.67840000  0.88920000  1
  H  H686  1  0.85490000  0.71730000  0.89740000  1
  H  H687  1  0.87770000  0.79020000  0.82140000  1
  H  H688  1  0.87210000  0.79050000  0.86860000  1
  H  H689  1  0.84270000  0.76500000  0.84130000  1
  H  H690  1  0.08970000  0.83180000  0.99290000  1
  H  H691  1  0.14330000  0.66890000  0.02600000  1
  H  H692  1  0.16450000  0.70770000  0.00920000  1
  H  H693  1  0.21600000  0.68910000  0.09790000  1
  H  H694  1  0.21800000  0.69660000  0.05100000  1
  H  H695  1  0.19660000  0.65770000  0.06790000  1
  H  H696  1  0.07950000  0.71350000  0.06300000  1
  H  H697  1  0.04940000  0.70830000  0.02670000  1
  H  H698  1  0.01890000  0.60990000  0.07530000  1
  H  H699  1  0.00130000  0.64620000  0.05010000  1
  H  H700  1  0.01850000  0.65370000  0.09380000  1
  H  H701  1  0.12360000  0.70440000  0.95160000  1
  H  H702  1  0.10090000  0.66630000  0.96850000  1
  H  H703  1  0.10170000  0.75880000  0.92020000  1
  H  H704  1  0.07000000  0.75030000  0.88580000  1
  H  H705  1  0.05840000  0.77830000  0.92250000  1
  H  H706  1  0.21850000  0.87020000  0.96900000  1
  H  H707  1  0.16780000  0.91840000  0.97450000  1
  H  H708  1  0.09580000  0.76850000  0.03530000  1
  H  H709  1  0.08550000  0.76730000  0.98850000  1
  H  H710  1  0.05810000  0.94620000  0.93750000  1
  H  H711  1  0.94190000  0.94190000  0.94190000  1
  H  H712  1  0.53010000  0.58330000  0.82980000  1
  H  H713  1  0.51010000  0.71660000  0.86050000  1
  H  H714  1  0.50260000  0.66960000  0.91090000  1
  H  H715  1  0.57640000  0.57860000  0.77300000  1
  H  H716  1  0.53050000  0.57750000  0.76000000  1
  H  H717  1  0.53680000  0.64580000  0.69950000  1
  H  H718  1  0.54550000  0.61800000  0.66200000  1
  H  H719  1  0.46830000  0.61630000  0.75730000  1
  H  H720  1  0.47560000  0.65550000  0.73140000  1
  H  H721  1  0.43520000  0.63090000  0.72640000  1
  H  H722  1  0.59310000  0.53820000  0.71670000  1
  H  H723  1  0.54700000  0.53710000  0.70570000  1
  H  H724  1  0.52310000  0.51200000  0.63900000  1
  H  H725  1  0.51840000  0.55860000  0.63080000  1
  H  H726  1  0.53850000  0.53060000  0.59810000  1
  H  H727  1  0.61080000  0.61910000  0.67840000  1
  H  H728  1  0.60260000  0.64510000  0.71730000  1
  H  H729  1  0.67860000  0.62230000  0.79020000  1
  H  H730  1  0.63140000  0.62790000  0.79050000  1
  H  H731  1  0.65870000  0.65730000  0.76500000  1
  H  H732  1  0.50710000  0.41030000  0.83180000  1
  H  H733  1  0.47400000  0.35670000  0.66890000  1
  H  H734  1  0.49080000  0.33550000  0.70770000  1
  H  H735  1  0.40210000  0.28400000  0.68910000  1
  H  H736  1  0.44900000  0.28200000  0.69660000  1
  H  H737  1  0.43210000  0.30340000  0.65770000  1
  H  H738  1  0.43700000  0.42050000  0.71350000  1
  H  H739  1  0.47330000  0.45060000  0.70830000  1
  H  H740  1  0.42470000  0.48110000  0.60990000  1
  H  H741  1  0.44990000  0.49870000  0.64620000  1
  H  H742  1  0.40620000  0.48150000  0.65370000  1
  H  H743  1  0.54840000  0.37640000  0.70440000  1
  H  H744  1  0.53150000  0.39910000  0.66630000  1
  H  H745  1  0.57980000  0.39830000  0.75880000  1
  H  H746  1  0.61420000  0.43000000  0.75030000  1
  H  H747  1  0.57750000  0.44160000  0.77830000  1
  H  H748  1  0.53100000  0.28150000  0.87020000  1
  H  H749  1  0.52550000  0.33220000  0.91840000  1
  H  H750  1  0.46470000  0.40420000  0.76850000  1
  H  H751  1  0.51150000  0.41450000  0.76730000  1
  H  H752  1  0.56250000  0.44190000  0.94620000  1
  H  H753  1  0.96990000  0.91670000  0.82980000  1
  H  H754  1  0.98990000  0.78340000  0.86050000  1
  H  H755  1  0.99740000  0.83040000  0.91090000  1
  H  H756  1  0.92360000  0.92140000  0.77300000  1
  H  H757  1  0.96950000  0.92250000  0.76000000  1
  H  H758  1  0.96320000  0.85420000  0.69950000  1
  H  H759  1  0.95450000  0.88200000  0.66200000  1
  H  H760  1  0.03170000  0.88370000  0.75730000  1
  H  H761  1  0.02440000  0.84450000  0.73140000  1
  H  H762  1  0.06480000  0.86910000  0.72640000  1
  H  H763  1  0.90690000  0.96180000  0.71670000  1
  H  H764  1  0.95300000  0.96290000  0.70570000  1
  H  H765  1  0.97690000  0.98800000  0.63900000  1
  H  H766  1  0.98160000  0.94140000  0.63080000  1
  H  H767  1  0.96150000  0.96940000  0.59810000  1
  H  H768  1  0.88920000  0.88090000  0.67840000  1
  H  H769  1  0.89740000  0.85490000  0.71730000  1
  H  H770  1  0.82140000  0.87770000  0.79020000  1
  H  H771  1  0.86860000  0.87210000  0.79050000  1
  H  H772  1  0.84130000  0.84270000  0.76500000  1
  H  H773  1  0.99290000  0.08970000  0.83180000  1
  H  H774  1  0.02600000  0.14330000  0.66890000  1
  H  H775  1  0.00920000  0.16450000  0.70770000  1
  H  H776  1  0.09790000  0.21600000  0.68910000  1
  H  H777  1  0.05100000  0.21800000  0.69660000  1
  H  H778  1  0.06790000  0.19660000  0.65770000  1
  H  H779  1  0.06300000  0.07950000  0.71350000  1
  H  H780  1  0.02670000  0.04940000  0.70830000  1
  H  H781  1  0.07530000  0.01890000  0.60990000  1
  H  H782  1  0.05010000  0.00130000  0.64620000  1
  H  H783  1  0.09380000  0.01850000  0.65370000  1
  H  H784  1  0.95160000  0.12360000  0.70440000  1
  H  H785  1  0.96850000  0.10090000  0.66630000  1
  H  H786  1  0.92020000  0.10170000  0.75880000  1
  H  H787  1  0.88580000  0.07000000  0.75030000  1
  H  H788  1  0.92250000  0.05840000  0.77830000  1
  H  H789  1  0.96900000  0.21850000  0.87020000  1
  H  H790  1  0.97450000  0.16780000  0.91840000  1
  H  H791  1  0.03530000  0.09580000  0.76850000  1
  H  H792  1  0.98850000  0.08550000  0.76730000  1
  H  H793  1  0.93750000  0.05810000  0.94620000  1
  H  H794  1  0.53010000  0.91670000  0.67020000  1
  H  H795  1  0.51010000  0.78340000  0.63950000  1
  H  H796  1  0.50260000  0.83040000  0.58910000  1
  H  H797  1  0.57640000  0.92140000  0.72700000  1
  H  H798  1  0.53050000  0.92250000  0.74000000  1
  H  H799  1  0.53680000  0.85420000  0.80050000  1
  H  H800  1  0.54550000  0.88200000  0.83800000  1
  H  H801  1  0.46830000  0.88370000  0.74270000  1
  H  H802  1  0.47560000  0.84450000  0.76860000  1
  H  H803  1  0.43520000  0.86910000  0.77360000  1
  H  H804  1  0.59310000  0.96180000  0.78330000  1
  H  H805  1  0.54700000  0.96290000  0.79430000  1
  H  H806  1  0.52310000  0.98800000  0.86100000  1
  H  H807  1  0.51840000  0.94140000  0.86920000  1
  H  H808  1  0.53850000  0.96940000  0.90190000  1
  H  H809  1  0.61080000  0.88090000  0.82160000  1
  H  H810  1  0.60260000  0.85490000  0.78270000  1
  H  H811  1  0.67860000  0.87770000  0.70980000  1
  H  H812  1  0.63140000  0.87210000  0.70950000  1
  H  H813  1  0.65870000  0.84270000  0.73500000  1
  H  H814  1  0.50710000  0.08970000  0.66820000  1
  H  H815  1  0.47400000  0.14330000  0.83110000  1
  H  H816  1  0.49080000  0.16450000  0.79230000  1
  H  H817  1  0.40210000  0.21600000  0.81090000  1
  H  H818  1  0.44900000  0.21800000  0.80340000  1
  H  H819  1  0.43210000  0.19660000  0.84230000  1
  H  H820  1  0.43700000  0.07950000  0.78650000  1
  H  H821  1  0.47330000  0.04940000  0.79170000  1
  H  H822  1  0.42470000  0.01890000  0.89010000  1
  H  H823  1  0.44990000  0.00130000  0.85380000  1
  H  H824  1  0.40620000  0.01850000  0.84630000  1
  H  H825  1  0.54840000  0.12360000  0.79560000  1
  H  H826  1  0.53150000  0.10090000  0.83370000  1
  H  H827  1  0.57980000  0.10170000  0.74120000  1
  H  H828  1  0.61420000  0.07000000  0.74970000  1
  H  H829  1  0.57750000  0.05840000  0.72170000  1
  H  H830  1  0.53100000  0.21850000  0.62980000  1
  H  H831  1  0.52550000  0.16780000  0.58160000  1
  H  H832  1  0.46470000  0.09580000  0.73150000  1
  H  H833  1  0.51150000  0.08550000  0.73270000  1
  H  H834  1  0.56250000  0.05810000  0.55380000  1
  H  H835  1  0.96990000  0.58330000  0.67020000  1
  H  H836  1  0.98990000  0.71660000  0.63950000  1
  H  H837  1  0.99740000  0.66960000  0.58910000  1
  H  H838  1  0.92360000  0.57860000  0.72700000  1
  H  H839  1  0.96950000  0.57750000  0.74000000  1
  H  H840  1  0.96320000  0.64580000  0.80050000  1
  H  H841  1  0.95450000  0.61800000  0.83800000  1
  H  H842  1  0.03170000  0.61630000  0.74270000  1
  H  H843  1  0.02440000  0.65550000  0.76860000  1
  H  H844  1  0.06480000  0.63090000  0.77360000  1
  H  H845  1  0.90690000  0.53820000  0.78330000  1
  H  H846  1  0.95300000  0.53710000  0.79430000  1
  H  H847  1  0.97690000  0.51200000  0.86100000  1
  H  H848  1  0.98160000  0.55860000  0.86920000  1
  H  H849  1  0.96150000  0.53060000  0.90190000  1
  H  H850  1  0.88920000  0.61910000  0.82160000  1
  H  H851  1  0.89740000  0.64510000  0.78270000  1
  H  H852  1  0.82140000  0.62230000  0.70980000  1
  H  H853  1  0.86860000  0.62790000  0.70950000  1
  H  H854  1  0.84130000  0.65730000  0.73500000  1
  H  H855  1  0.99290000  0.41030000  0.66820000  1
  H  H856  1  0.03620000  0.39210000  0.73100000  1
  H  H857  1  0.99860000  0.42160000  0.73300000  1
  H  H858  1  0.02600000  0.35670000  0.83110000  1
  H  H859  1  0.00920000  0.33550000  0.79230000  1
  H  H860  1  0.09790000  0.28400000  0.81090000  1
  H  H861  1  0.05100000  0.28200000  0.80340000  1
  H  H862  1  0.06790000  0.30340000  0.84230000  1
  H  H863  1  0.06300000  0.42050000  0.78650000  1
  H  H864  1  0.02670000  0.45060000  0.79170000  1
  H  H865  1  0.07530000  0.48110000  0.89010000  1
  H  H866  1  0.05010000  0.49870000  0.85380000  1
  H  H867  1  0.09380000  0.48150000  0.84630000  1
  H  H868  1  0.95160000  0.37640000  0.79560000  1
  H  H869  1  0.96850000  0.39910000  0.83370000  1
  H  H870  1  0.92020000  0.39830000  0.74120000  1
  H  H871  1  0.88580000  0.43000000  0.74970000  1
  H  H872  1  0.92250000  0.44160000  0.72170000  1
  H  H873  1  0.96900000  0.28150000  0.62980000  1
  H  H874  1  0.97450000  0.33220000  0.58160000  1
  H  H875  1  0.93750000  0.44190000  0.55380000  1
  H  H876  1  0.82980000  0.53010000  0.58330000  1
  H  H877  1  0.86050000  0.51010000  0.71660000  1
  H  H878  1  0.91090000  0.50260000  0.66960000  1
  H  H879  1  0.77300000  0.57640000  0.57860000  1
  H  H880  1  0.76000000  0.53050000  0.57750000  1
  H  H881  1  0.69950000  0.53680000  0.64580000  1
  H  H882  1  0.66200000  0.54550000  0.61800000  1
  H  H883  1  0.75730000  0.46830000  0.61630000  1
  H  H884  1  0.73140000  0.47560000  0.65550000  1
  H  H885  1  0.72640000  0.43520000  0.63090000  1
  H  H886  1  0.71670000  0.59310000  0.53820000  1
  H  H887  1  0.70570000  0.54700000  0.53710000  1
  H  H888  1  0.63900000  0.52310000  0.51200000  1
  H  H889  1  0.63080000  0.51840000  0.55860000  1
  H  H890  1  0.59810000  0.53850000  0.53060000  1
  H  H891  1  0.67840000  0.61080000  0.61910000  1
  H  H892  1  0.71730000  0.60260000  0.64510000  1
  H  H893  1  0.79020000  0.67860000  0.62230000  1
  H  H894  1  0.79050000  0.63140000  0.62790000  1
  H  H895  1  0.76500000  0.65870000  0.65730000  1
  H  H896  1  0.83180000  0.50710000  0.41030000  1
  H  H897  1  0.66890000  0.47400000  0.35670000  1
  H  H898  1  0.70770000  0.49080000  0.33550000  1
  H  H899  1  0.68910000  0.40210000  0.28400000  1
  H  H900  1  0.69660000  0.44900000  0.28200000  1
  H  H901  1  0.65770000  0.43210000  0.30340000  1
  H  H902  1  0.71350000  0.43700000  0.42050000  1
  H  H903  1  0.70830000  0.47330000  0.45060000  1
  H  H904  1  0.60990000  0.42470000  0.48110000  1
  H  H905  1  0.64620000  0.44990000  0.49870000  1
  H  H906  1  0.65370000  0.40620000  0.48150000  1
  H  H907  1  0.70440000  0.54840000  0.37640000  1
  H  H908  1  0.66630000  0.53150000  0.39910000  1
  H  H909  1  0.75880000  0.57980000  0.39830000  1
  H  H910  1  0.75030000  0.61420000  0.43000000  1
  H  H911  1  0.77830000  0.57750000  0.44160000  1
  H  H912  1  0.87020000  0.53100000  0.28150000  1
  H  H913  1  0.91840000  0.52550000  0.33220000  1
  H  H914  1  0.76850000  0.46470000  0.40420000  1
  H  H915  1  0.76730000  0.51150000  0.41450000  1
  H  H916  1  0.94620000  0.56250000  0.44190000  1
  H  H917  1  0.82980000  0.96990000  0.91670000  1
  H  H918  1  0.86050000  0.98990000  0.78340000  1
  H  H919  1  0.91090000  0.99740000  0.83040000  1
  H  H920  1  0.77300000  0.92360000  0.92140000  1
  H  H921  1  0.76000000  0.96950000  0.92250000  1
  H  H922  1  0.69950000  0.96320000  0.85420000  1
  H  H923  1  0.66200000  0.95450000  0.88200000  1
  H  H924  1  0.75730000  0.03170000  0.88370000  1
  H  H925  1  0.73140000  0.02440000  0.84450000  1
  H  H926  1  0.72640000  0.06480000  0.86910000  1
  H  H927  1  0.71670000  0.90690000  0.96180000  1
  H  H928  1  0.70570000  0.95300000  0.96290000  1
  H  H929  1  0.63900000  0.97690000  0.98800000  1
  H  H930  1  0.63080000  0.98160000  0.94140000  1
  H  H931  1  0.59810000  0.96150000  0.96940000  1
  H  H932  1  0.67840000  0.88920000  0.88090000  1
  H  H933  1  0.71730000  0.89740000  0.85490000  1
  H  H934  1  0.79020000  0.82140000  0.87770000  1
  H  H935  1  0.79050000  0.86860000  0.87210000  1
  H  H936  1  0.76500000  0.84130000  0.84270000  1
  H  H937  1  0.83180000  0.99290000  0.08970000  1
  H  H938  1  0.76900000  0.03620000  0.10790000  1
  H  H939  1  0.76700000  0.99860000  0.07840000  1
  H  H940  1  0.66890000  0.02600000  0.14330000  1
  H  H941  1  0.70770000  0.00920000  0.16450000  1
  H  H942  1  0.68910000  0.09790000  0.21600000  1
  H  H943  1  0.69660000  0.05100000  0.21800000  1
  H  H944  1  0.65770000  0.06790000  0.19660000  1
  H  H945  1  0.71350000  0.06300000  0.07950000  1
  H  H946  1  0.70830000  0.02670000  0.04940000  1
  H  H947  1  0.60990000  0.07530000  0.01890000  1
  H  H948  1  0.64620000  0.05010000  0.00130000  1
  H  H949  1  0.65370000  0.09380000  0.01850000  1
  H  H950  1  0.70440000  0.95160000  0.12360000  1
  H  H951  1  0.66630000  0.96850000  0.10090000  1
  H  H952  1  0.75880000  0.92020000  0.10170000  1
  H  H953  1  0.75030000  0.88580000  0.07000000  1
  H  H954  1  0.77830000  0.92250000  0.05840000  1
  H  H955  1  0.87020000  0.96900000  0.21850000  1
  H  H956  1  0.91840000  0.97450000  0.16780000  1
  H  H957  1  0.94620000  0.93750000  0.05810000  1
  H  H958  1  0.67020000  0.53010000  0.91670000  1
  H  H959  1  0.63950000  0.51010000  0.78340000  1
  H  H960  1  0.58910000  0.50260000  0.83040000  1
  H  H961  1  0.72700000  0.57640000  0.92140000  1
  H  H962  1  0.74000000  0.53050000  0.92250000  1
  H  H963  1  0.80050000  0.53680000  0.85420000  1
  H  H964  1  0.83800000  0.54550000  0.88200000  1
  H  H965  1  0.74270000  0.46830000  0.88370000  1
  H  H966  1  0.76860000  0.47560000  0.84450000  1
  H  H967  1  0.77360000  0.43520000  0.86910000  1
  H  H968  1  0.78330000  0.59310000  0.96180000  1
  H  H969  1  0.79430000  0.54700000  0.96290000  1
  H  H970  1  0.86100000  0.52310000  0.98800000  1
  H  H971  1  0.86920000  0.51840000  0.94140000  1
  H  H972  1  0.90190000  0.53850000  0.96940000  1
  H  H973  1  0.82160000  0.61080000  0.88090000  1
  H  H974  1  0.78270000  0.60260000  0.85490000  1
  H  H975  1  0.70980000  0.67860000  0.87770000  1
  H  H976  1  0.70950000  0.63140000  0.87210000  1
  H  H977  1  0.73500000  0.65870000  0.84270000  1
  H  H978  1  0.66820000  0.50710000  0.08970000  1
  H  H979  1  0.83110000  0.47400000  0.14330000  1
  H  H980  1  0.79230000  0.49080000  0.16450000  1
  H  H981  1  0.81090000  0.40210000  0.21600000  1
  H  H982  1  0.80340000  0.44900000  0.21800000  1
  H  H983  1  0.84230000  0.43210000  0.19660000  1
  H  H984  1  0.78650000  0.43700000  0.07950000  1
  H  H985  1  0.79170000  0.47330000  0.04940000  1
  H  H986  1  0.89010000  0.42470000  0.01890000  1
  H  H987  1  0.85380000  0.44990000  0.00130000  1
  H  H988  1  0.84630000  0.40620000  0.01850000  1
  H  H989  1  0.79560000  0.54840000  0.12360000  1
  H  H990  1  0.83370000  0.53150000  0.10090000  1
  H  H991  1  0.74120000  0.57980000  0.10170000  1
  H  H992  1  0.74970000  0.61420000  0.07000000  1
  H  H993  1  0.72170000  0.57750000  0.05840000  1
  H  H994  1  0.62980000  0.53100000  0.21850000  1
  H  H995  1  0.58160000  0.52550000  0.16780000  1
  H  H996  1  0.73150000  0.46470000  0.09580000  1
  H  H997  1  0.73270000  0.51150000  0.08550000  1
  H  H998  1  0.55380000  0.56250000  0.05810000  1
  H  H999  1  0.67020000  0.96990000  0.58330000  1
  H  H1000  1  0.63950000  0.98990000  0.71660000  1
  H  H1001  1  0.58910000  0.99740000  0.66960000  1
  H  H1002  1  0.72700000  0.92360000  0.57860000  1
  H  H1003  1  0.74000000  0.96950000  0.57750000  1
  H  H1004  1  0.80050000  0.96320000  0.64580000  1
  H  H1005  1  0.83800000  0.95450000  0.61800000  1
  H  H1006  1  0.74270000  0.03170000  0.61630000  1
  H  H1007  1  0.76860000  0.02440000  0.65550000  1
  H  H1008  1  0.77360000  0.06480000  0.63090000  1
  H  H1009  1  0.78330000  0.90690000  0.53820000  1
  H  H1010  1  0.79430000  0.95300000  0.53710000  1
  H  H1011  1  0.86100000  0.97690000  0.51200000  1
  H  H1012  1  0.86920000  0.98160000  0.55860000  1
  H  H1013  1  0.90190000  0.96150000  0.53060000  1
  H  H1014  1  0.82160000  0.88920000  0.61910000  1
  H  H1015  1  0.78270000  0.89740000  0.64510000  1
  H  H1016  1  0.70980000  0.82140000  0.62230000  1
  H  H1017  1  0.70950000  0.86860000  0.62790000  1
  H  H1018  1  0.73500000  0.84130000  0.65730000  1
  H  H1019  1  0.66820000  0.99290000  0.41030000  1
  H  H1020  1  0.73100000  0.03620000  0.39210000  1
  H  H1021  1  0.73300000  0.99860000  0.42160000  1
  H  H1022  1  0.83110000  0.02600000  0.35670000  1
  H  H1023  1  0.79230000  0.00920000  0.33550000  1
  H  H1024  1  0.81090000  0.09790000  0.28400000  1
  H  H1025  1  0.80340000  0.05100000  0.28200000  1
  H  H1026  1  0.84230000  0.06790000  0.30340000  1
  H  H1027  1  0.78650000  0.06300000  0.42050000  1
  H  H1028  1  0.79170000  0.02670000  0.45060000  1
  H  H1029  1  0.89010000  0.07530000  0.48110000  1
  H  H1030  1  0.85380000  0.05010000  0.49870000  1
  H  H1031  1  0.84630000  0.09380000  0.48150000  1
  H  H1032  1  0.79560000  0.95160000  0.37640000  1
  H  H1033  1  0.83370000  0.96850000  0.39910000  1
  H  H1034  1  0.74120000  0.92020000  0.39830000  1
  H  H1035  1  0.74970000  0.88580000  0.43000000  1
  H  H1036  1  0.72170000  0.92250000  0.44160000  1
  H  H1037  1  0.62980000  0.96900000  0.28150000  1
  H  H1038  1  0.58160000  0.97450000  0.33220000  1
  H  H1039  1  0.55380000  0.93750000  0.44190000  1
  C  C1040  1  0.40820000  0.09470000  0.49720000  1
  C  C1041  1  0.37810000  0.12550000  0.48650000  1
  C  C1042  1  0.38940000  0.16380000  0.47290000  1
  C  C1043  1  0.36130000  0.19130000  0.46420000  1
  C  C1044  1  0.32020000  0.18260000  0.46930000  1
  C  C1045  1  0.31050000  0.14500000  0.48400000  1
  C  C1046  1  0.33830000  0.11530000  0.49050000  1
  C  C1047  1  0.29130000  0.21190000  0.46270000  1
  C  C1048  1  0.26490000  0.23620000  0.46070000  1
  C  C1049  1  0.40760000  0.24270000  0.44430000  1
  C  C1050  1  0.40570000  0.28520000  0.43220000  1
  C  C1051  1  0.38210000  0.30990000  0.46310000  1
  C  C1052  1  0.37110000  0.26860000  0.53610000  1
  C  C1053  1  0.44880000  0.29960000  0.42770000  1
  C  C1054  1  0.46470000  0.37340000  0.46460000  1
  C  C1055  1  0.38240000  0.29260000  0.39370000  1
  C  C1056  1  0.37000000  0.22580000  0.34500000  1
  C  C1057  1  0.59560000  0.09000000  0.49260000  1
  C  C1058  1  0.61630000  0.16130000  0.48620000  1
  C  C1059  1  0.64350000  0.19010000  0.48020000  1
  C  C1060  1  0.73590000  0.23520000  0.45540000  1
  C  C1061  1  0.60430000  0.24200000  0.50920000  1
  C  C1062  1  0.60660000  0.28910000  0.50990000  1
  C  C1063  1  0.64280000  0.30170000  0.52670000  1
  C  C1064  1  0.70180000  0.31410000  0.57270000  1
  C  C1065  1  0.57520000  0.30070000  0.53760000  1
  C  C1066  1  0.52170000  0.36170000  0.56930000  1
  C  C1067  1  0.60050000  0.30430000  0.46770000  1
  C  C1068  1  0.57350000  0.24530000  0.41440000  1
  C  C1069  1  0.62530000  0.12270000  0.49000000  1
  C  C1070  1  0.68430000  0.17740000  0.48350000  1
  C  C1071  1  0.69230000  0.13760000  0.47620000  1
  C  C1072  1  0.66270000  0.10900000  0.47940000  1
  C  C1073  1  0.71470000  0.20610000  0.48020000  1
  C  C1074  1  0.09180000  0.40530000  0.49720000  1
  C  C1075  1  0.12190000  0.37450000  0.48650000  1
  C  C1076  1  0.11060000  0.33620000  0.47290000  1
  C  C1077  1  0.13870000  0.30870000  0.46420000  1
  C  C1078  1  0.17980000  0.31740000  0.46930000  1
  C  C1079  1  0.18950000  0.35500000  0.48400000  1
  C  C1080  1  0.16170000  0.38470000  0.49050000  1
  C  C1081  1  0.20870000  0.28810000  0.46270000  1
  C  C1082  1  0.23510000  0.26380000  0.46070000  1
  C  C1083  1  0.09240000  0.25730000  0.44430000  1
  C  C1084  1  0.09430000  0.21480000  0.43220000  1
  C  C1085  1  0.11790000  0.19010000  0.46310000  1
  C  C1086  1  0.12890000  0.23140000  0.53610000  1
  C  C1087  1  0.05120000  0.20040000  0.42770000  1
  C  C1088  1  0.03530000  0.12660000  0.46460000  1
  C  C1089  1  0.11760000  0.20740000  0.39370000  1
  C  C1090  1  0.13000000  0.27420000  0.34500000  1
  C  C1091  1  0.90440000  0.41000000  0.49260000  1
  C  C1092  1  0.88370000  0.33870000  0.48620000  1
  C  C1093  1  0.85650000  0.30990000  0.48020000  1
  C  C1094  1  0.76410000  0.26480000  0.45540000  1
  C  C1095  1  0.89570000  0.25800000  0.50920000  1
  C  C1096  1  0.89340000  0.21090000  0.50990000  1
  C  C1097  1  0.85720000  0.19830000  0.52670000  1
  C  C1098  1  0.79820000  0.18590000  0.57270000  1
  C  C1099  1  0.92480000  0.19930000  0.53760000  1
  C  C1100  1  0.97830000  0.13830000  0.56930000  1
  C  C1101  1  0.89950000  0.19570000  0.46770000  1
  C  C1102  1  0.92650000  0.25470000  0.41440000  1
  C  C1103  1  0.87470000  0.37730000  0.49000000  1
  C  C1104  1  0.81570000  0.32260000  0.48350000  1
  C  C1105  1  0.80770000  0.36240000  0.47620000  1
  C  C1106  1  0.83730000  0.39100000  0.47940000  1
  C  C1107  1  0.78530000  0.29390000  0.48020000  1
  C  C1108  1  0.40820000  0.40530000  0.00280000  1
  C  C1109  1  0.37810000  0.37450000  0.01350000  1
  C  C1110  1  0.38940000  0.33620000  0.02710000  1
  C  C1111  1  0.36130000  0.30870000  0.03580000  1
  C  C1112  1  0.32020000  0.31740000  0.03070000  1
  C  C1113  1  0.31050000  0.35500000  0.01600000  1
  C  C1114  1  0.33830000  0.38470000  0.00950000  1
  C  C1115  1  0.29130000  0.28810000  0.03730000  1
  C  C1116  1  0.26490000  0.26380000  0.03930000  1
  C  C1117  1  0.40760000  0.25730000  0.05570000  1
  C  C1118  1  0.40570000  0.21480000  0.06780000  1
  C  C1119  1  0.38210000  0.19010000  0.03690000  1
  C  C1120  1  0.37110000  0.23140000  0.96390000  1
  C  C1121  1  0.44880000  0.20040000  0.07230000  1
  C  C1122  1  0.46470000  0.12660000  0.03540000  1
  C  C1123  1  0.38240000  0.20740000  0.10630000  1
  C  C1124  1  0.37000000  0.27420000  0.15500000  1
  C  C1125  1  0.59560000  0.41000000  0.00740000  1
  C  C1126  1  0.61630000  0.33870000  0.01380000  1
  C  C1127  1  0.64350000  0.30990000  0.01980000  1
  C  C1128  1  0.73590000  0.26480000  0.04460000  1
  C  C1129  1  0.60430000  0.25800000  0.99080000  1
  C  C1130  1  0.60660000  0.21090000  0.99010000  1
  C  C1131  1  0.64280000  0.19830000  0.97330000  1
  C  C1132  1  0.70180000  0.18590000  0.92730000  1
  C  C1133  1  0.57520000  0.19930000  0.96240000  1
  C  C1134  1  0.52170000  0.13830000  0.93070000  1
  C  C1135  1  0.60050000  0.19570000  0.03230000  1
  C  C1136  1  0.57350000  0.25470000  0.08560000  1
  C  C1137  1  0.62530000  0.37730000  0.01000000  1
  C  C1138  1  0.68430000  0.32260000  0.01650000  1
  C  C1139  1  0.69230000  0.36240000  0.02380000  1
  C  C1140  1  0.66270000  0.39100000  0.02060000  1
  C  C1141  1  0.71470000  0.29390000  0.01980000  1
  C  C1142  1  0.09180000  0.09470000  0.00280000  1
  C  C1143  1  0.12190000  0.12550000  0.01350000  1
  C  C1144  1  0.11060000  0.16380000  0.02710000  1
  C  C1145  1  0.13870000  0.19130000  0.03580000  1
  C  C1146  1  0.17980000  0.18260000  0.03070000  1
  C  C1147  1  0.18950000  0.14500000  0.01600000  1
  C  C1148  1  0.16170000  0.11530000  0.00950000  1
  C  C1149  1  0.20870000  0.21190000  0.03730000  1
  C  C1150  1  0.23510000  0.23620000  0.03930000  1
  C  C1151  1  0.09240000  0.24270000  0.05570000  1
  C  C1152  1  0.09430000  0.28520000  0.06780000  1
  C  C1153  1  0.11790000  0.30990000  0.03690000  1
  C  C1154  1  0.12890000  0.26860000  0.96390000  1
  C  C1155  1  0.05120000  0.29960000  0.07230000  1
  C  C1156  1  0.03530000  0.37340000  0.03540000  1
  C  C1157  1  0.11760000  0.29260000  0.10630000  1
  C  C1158  1  0.13000000  0.22580000  0.15500000  1
  C  C1159  1  0.90440000  0.09000000  0.00740000  1
  C  C1160  1  0.88370000  0.16130000  0.01380000  1
  C  C1161  1  0.85650000  0.19010000  0.01980000  1
  C  C1162  1  0.76410000  0.23520000  0.04460000  1
  C  C1163  1  0.89570000  0.24200000  0.99080000  1
  C  C1164  1  0.89340000  0.28910000  0.99010000  1
  C  C1165  1  0.85720000  0.30170000  0.97330000  1
  C  C1166  1  0.79820000  0.31410000  0.92730000  1
  C  C1167  1  0.92480000  0.30070000  0.96240000  1
  C  C1168  1  0.97830000  0.36170000  0.93070000  1
  C  C1169  1  0.89950000  0.30430000  0.03230000  1
  C  C1170  1  0.92650000  0.24530000  0.08560000  1
  C  C1171  1  0.87470000  0.12270000  0.01000000  1
  C  C1172  1  0.81570000  0.17740000  0.01650000  1
  C  C1173  1  0.80770000  0.13760000  0.02380000  1
  C  C1174  1  0.83730000  0.10900000  0.02060000  1
  C  C1175  1  0.78530000  0.20610000  0.01980000  1
  C  C1176  1  0.49720000  0.40820000  0.09470000  1
  C  C1177  1  0.48650000  0.37810000  0.12550000  1
  C  C1178  1  0.47290000  0.38940000  0.16380000  1
  C  C1179  1  0.46420000  0.36130000  0.19130000  1
  C  C1180  1  0.46930000  0.32020000  0.18260000  1
  C  C1181  1  0.48400000  0.31050000  0.14500000  1
  C  C1182  1  0.49050000  0.33830000  0.11530000  1
  C  C1183  1  0.46270000  0.29130000  0.21190000  1
  C  C1184  1  0.46070000  0.26490000  0.23620000  1
  C  C1185  1  0.44430000  0.40760000  0.24270000  1
  C  C1186  1  0.43220000  0.40570000  0.28520000  1
  C  C1187  1  0.46310000  0.38210000  0.30990000  1
  C  C1188  1  0.53610000  0.37110000  0.26860000  1
  C  C1189  1  0.42770000  0.44880000  0.29960000  1
  C  C1190  1  0.46460000  0.46470000  0.37340000  1
  C  C1191  1  0.39370000  0.38240000  0.29260000  1
  C  C1192  1  0.34500000  0.37000000  0.22580000  1
  C  C1193  1  0.49260000  0.59560000  0.09000000  1
  C  C1194  1  0.48620000  0.61630000  0.16130000  1
  C  C1195  1  0.48020000  0.64350000  0.19010000  1
  C  C1196  1  0.45540000  0.73590000  0.23520000  1
  C  C1197  1  0.50920000  0.60430000  0.24200000  1
  C  C1198  1  0.50990000  0.60660000  0.28910000  1
  C  C1199  1  0.52670000  0.64280000  0.30170000  1
  C  C1200  1  0.57270000  0.70180000  0.31410000  1
  C  C1201  1  0.53760000  0.57520000  0.30070000  1
  C  C1202  1  0.56930000  0.52170000  0.36170000  1
  C  C1203  1  0.46770000  0.60050000  0.30430000  1
  C  C1204  1  0.41440000  0.57350000  0.24530000  1
  C  C1205  1  0.49000000  0.62530000  0.12270000  1
  C  C1206  1  0.48350000  0.68430000  0.17740000  1
  C  C1207  1  0.47620000  0.69230000  0.13760000  1
  C  C1208  1  0.47940000  0.66270000  0.10900000  1
  C  C1209  1  0.48020000  0.71470000  0.20610000  1
  C  C1210  1  0.00280000  0.09180000  0.09470000  1
  C  C1211  1  0.01350000  0.12190000  0.12550000  1
  C  C1212  1  0.02710000  0.11060000  0.16380000  1
  C  C1213  1  0.03580000  0.13870000  0.19130000  1
  C  C1214  1  0.03070000  0.17980000  0.18260000  1
  C  C1215  1  0.01600000  0.18950000  0.14500000  1
  C  C1216  1  0.00950000  0.16170000  0.11530000  1
  C  C1217  1  0.03730000  0.20870000  0.21190000  1
  C  C1218  1  0.03930000  0.23510000  0.23620000  1
  C  C1219  1  0.05570000  0.09240000  0.24270000  1
  C  C1220  1  0.06780000  0.09430000  0.28520000  1
  C  C1221  1  0.03690000  0.11790000  0.30990000  1
  C  C1222  1  0.96390000  0.12890000  0.26860000  1
  C  C1223  1  0.07230000  0.05120000  0.29960000  1
  C  C1224  1  0.03540000  0.03530000  0.37340000  1
  C  C1225  1  0.10630000  0.11760000  0.29260000  1
  C  C1226  1  0.15500000  0.13000000  0.22580000  1
  C  C1227  1  0.00740000  0.90440000  0.09000000  1
  C  C1228  1  0.01380000  0.88370000  0.16130000  1
  C  C1229  1  0.01980000  0.85650000  0.19010000  1
  C  C1230  1  0.04460000  0.76410000  0.23520000  1
  C  C1231  1  0.99080000  0.89570000  0.24200000  1
  C  C1232  1  0.99010000  0.89340000  0.28910000  1
  C  C1233  1  0.97330000  0.85720000  0.30170000  1
  C  C1234  1  0.92730000  0.79820000  0.31410000  1
  C  C1235  1  0.96240000  0.92480000  0.30070000  1
  C  C1236  1  0.93070000  0.97830000  0.36170000  1
  C  C1237  1  0.03230000  0.89950000  0.30430000  1
  C  C1238  1  0.08560000  0.92650000  0.24530000  1
  C  C1239  1  0.01000000  0.87470000  0.12270000  1
  C  C1240  1  0.01650000  0.81570000  0.17740000  1
  C  C1241  1  0.02380000  0.80770000  0.13760000  1
  C  C1242  1  0.02060000  0.83730000  0.10900000  1
  C  C1243  1  0.01980000  0.78530000  0.20610000  1
  C  C1244  1  0.49720000  0.09180000  0.40530000  1
  C  C1245  1  0.48650000  0.12190000  0.37450000  1
  C  C1246  1  0.47290000  0.11060000  0.33620000  1
  C  C1247  1  0.46420000  0.13870000  0.30870000  1
  C  C1248  1  0.46930000  0.17980000  0.31740000  1
  C  C1249  1  0.48400000  0.18950000  0.35500000  1
  C  C1250  1  0.49050000  0.16170000  0.38470000  1
  C  C1251  1  0.46270000  0.20870000  0.28810000  1
  C  C1252  1  0.46070000  0.23510000  0.26380000  1
  C  C1253  1  0.44430000  0.09240000  0.25730000  1
  C  C1254  1  0.43220000  0.09430000  0.21480000  1
  C  C1255  1  0.46310000  0.11790000  0.19010000  1
  C  C1256  1  0.53610000  0.12890000  0.23140000  1
  C  C1257  1  0.42770000  0.05120000  0.20040000  1
  C  C1258  1  0.46460000  0.03530000  0.12660000  1
  C  C1259  1  0.39370000  0.11760000  0.20740000  1
  C  C1260  1  0.34500000  0.13000000  0.27420000  1
  C  C1261  1  0.49260000  0.90440000  0.41000000  1
  C  C1262  1  0.48620000  0.88370000  0.33870000  1
  C  C1263  1  0.48020000  0.85650000  0.30990000  1
  C  C1264  1  0.45540000  0.76410000  0.26480000  1
  C  C1265  1  0.50920000  0.89570000  0.25800000  1
  C  C1266  1  0.50990000  0.89340000  0.21090000  1
  C  C1267  1  0.52670000  0.85720000  0.19830000  1
  C  C1268  1  0.57270000  0.79820000  0.18590000  1
  C  C1269  1  0.53760000  0.92480000  0.19930000  1
  C  C1270  1  0.56930000  0.97830000  0.13830000  1
  C  C1271  1  0.46770000  0.89950000  0.19570000  1
  C  C1272  1  0.41440000  0.92650000  0.25470000  1
  C  C1273  1  0.49000000  0.87470000  0.37730000  1
  C  C1274  1  0.48350000  0.81570000  0.32260000  1
  C  C1275  1  0.47620000  0.80770000  0.36240000  1
  C  C1276  1  0.47940000  0.83730000  0.39100000  1
  C  C1277  1  0.48020000  0.78530000  0.29390000  1
  C  C1278  1  0.00280000  0.40820000  0.40530000  1
  C  C1279  1  0.01350000  0.37810000  0.37450000  1
  C  C1280  1  0.02710000  0.38940000  0.33620000  1
  C  C1281  1  0.03580000  0.36130000  0.30870000  1
  C  C1282  1  0.03070000  0.32020000  0.31740000  1
  C  C1283  1  0.01600000  0.31050000  0.35500000  1
  C  C1284  1  0.00950000  0.33830000  0.38470000  1
  C  C1285  1  0.03730000  0.29130000  0.28810000  1
  C  C1286  1  0.03930000  0.26490000  0.26380000  1
  C  C1287  1  0.05570000  0.40760000  0.25730000  1
  C  C1288  1  0.06780000  0.40570000  0.21480000  1
  C  C1289  1  0.03690000  0.38210000  0.19010000  1
  C  C1290  1  0.96390000  0.37110000  0.23140000  1
  C  C1291  1  0.07230000  0.44880000  0.20040000  1
  C  C1292  1  0.03540000  0.46470000  0.12660000  1
  C  C1293  1  0.10630000  0.38240000  0.20740000  1
  C  C1294  1  0.15500000  0.37000000  0.27420000  1
  C  C1295  1  0.00740000  0.59560000  0.41000000  1
  C  C1296  1  0.01380000  0.61630000  0.33870000  1
  C  C1297  1  0.01980000  0.64350000  0.30990000  1
  C  C1298  1  0.04460000  0.73590000  0.26480000  1
  C  C1299  1  0.99080000  0.60430000  0.25800000  1
  C  C1300  1  0.99010000  0.60660000  0.21090000  1
  C  C1301  1  0.97330000  0.64280000  0.19830000  1
  C  C1302  1  0.92730000  0.70180000  0.18590000  1
  C  C1303  1  0.96240000  0.57520000  0.19930000  1
  C  C1304  1  0.93070000  0.52170000  0.13830000  1
  C  C1305  1  0.03230000  0.60050000  0.19570000  1
  C  C1306  1  0.08560000  0.57350000  0.25470000  1
  C  C1307  1  0.01000000  0.62530000  0.37730000  1
  C  C1308  1  0.01650000  0.68430000  0.32260000  1
  C  C1309  1  0.02380000  0.69230000  0.36240000  1
  C  C1310  1  0.02060000  0.66270000  0.39100000  1
  C  C1311  1  0.01980000  0.71470000  0.29390000  1
  C  C1312  1  0.09470000  0.49720000  0.40820000  1
  C  C1313  1  0.12550000  0.48650000  0.37810000  1
  C  C1314  1  0.16380000  0.47290000  0.38940000  1
  C  C1315  1  0.19130000  0.46420000  0.36130000  1
  C  C1316  1  0.18260000  0.46930000  0.32020000  1
  C  C1317  1  0.14500000  0.48400000  0.31050000  1
  C  C1318  1  0.11530000  0.49050000  0.33830000  1
  C  C1319  1  0.21190000  0.46270000  0.29130000  1
  C  C1320  1  0.23620000  0.46070000  0.26490000  1
  C  C1321  1  0.24270000  0.44430000  0.40760000  1
  C  C1322  1  0.28520000  0.43220000  0.40570000  1
  C  C1323  1  0.30990000  0.46310000  0.38210000  1
  C  C1324  1  0.26860000  0.53610000  0.37110000  1
  C  C1325  1  0.29960000  0.42770000  0.44880000  1
  C  C1326  1  0.37340000  0.46460000  0.46470000  1
  C  C1327  1  0.29260000  0.39370000  0.38240000  1
  C  C1328  1  0.22580000  0.34500000  0.37000000  1
  C  C1329  1  0.09000000  0.49260000  0.59560000  1
  C  C1330  1  0.16130000  0.48620000  0.61630000  1
  C  C1331  1  0.19010000  0.48020000  0.64350000  1
  C  C1332  1  0.23520000  0.45540000  0.73590000  1
  C  C1333  1  0.24200000  0.50920000  0.60430000  1
  C  C1334  1  0.28910000  0.50990000  0.60660000  1
  C  C1335  1  0.30170000  0.52670000  0.64280000  1
  C  C1336  1  0.31410000  0.57270000  0.70180000  1
  C  C1337  1  0.30070000  0.53760000  0.57520000  1
  C  C1338  1  0.36170000  0.56930000  0.52170000  1
  C  C1339  1  0.30430000  0.46770000  0.60050000  1
  C  C1340  1  0.24530000  0.41440000  0.57350000  1
  C  C1341  1  0.12270000  0.49000000  0.62530000  1
  C  C1342  1  0.17740000  0.48350000  0.68430000  1
  C  C1343  1  0.13760000  0.47620000  0.69230000  1
  C  C1344  1  0.10900000  0.47940000  0.66270000  1
  C  C1345  1  0.20610000  0.48020000  0.71470000  1
  C  C1346  1  0.09470000  0.00280000  0.09180000  1
  C  C1347  1  0.12550000  0.01350000  0.12190000  1
  C  C1348  1  0.16380000  0.02710000  0.11060000  1
  C  C1349  1  0.19130000  0.03580000  0.13870000  1
  C  C1350  1  0.18260000  0.03070000  0.17980000  1
  C  C1351  1  0.14500000  0.01600000  0.18950000  1
  C  C1352  1  0.11530000  0.00950000  0.16170000  1
  C  C1353  1  0.21190000  0.03730000  0.20870000  1
  C  C1354  1  0.23620000  0.03930000  0.23510000  1
  C  C1355  1  0.24270000  0.05570000  0.09240000  1
  C  C1356  1  0.28520000  0.06780000  0.09430000  1
  C  C1357  1  0.30990000  0.03690000  0.11790000  1
  C  C1358  1  0.26860000  0.96390000  0.12890000  1
  C  C1359  1  0.29960000  0.07230000  0.05120000  1
  C  C1360  1  0.37340000  0.03540000  0.03530000  1
  C  C1361  1  0.29260000  0.10630000  0.11760000  1
  C  C1362  1  0.22580000  0.15500000  0.13000000  1
  C  C1363  1  0.09000000  0.00740000  0.90440000  1
  C  C1364  1  0.16130000  0.01380000  0.88370000  1
  C  C1365  1  0.19010000  0.01980000  0.85650000  1
  C  C1366  1  0.23520000  0.04460000  0.76410000  1
  C  C1367  1  0.24200000  0.99080000  0.89570000  1
  C  C1368  1  0.28910000  0.99010000  0.89340000  1
  C  C1369  1  0.30170000  0.97330000  0.85720000  1
  C  C1370  1  0.31410000  0.92730000  0.79820000  1
  C  C1371  1  0.30070000  0.96240000  0.92480000  1
  C  C1372  1  0.36170000  0.93070000  0.97830000  1
  C  C1373  1  0.30430000  0.03230000  0.89950000  1
  C  C1374  1  0.24530000  0.08560000  0.92650000  1
  C  C1375  1  0.12270000  0.01000000  0.87470000  1
  C  C1376  1  0.17740000  0.01650000  0.81570000  1
  C  C1377  1  0.13760000  0.02380000  0.80770000  1
  C  C1378  1  0.10900000  0.02060000  0.83730000  1
  C  C1379  1  0.20610000  0.01980000  0.78530000  1
  C  C1380  1  0.40530000  0.49720000  0.09180000  1
  C  C1381  1  0.37450000  0.48650000  0.12190000  1
  C  C1382  1  0.33620000  0.47290000  0.11060000  1
  C  C1383  1  0.30870000  0.46420000  0.13870000  1
  C  C1384  1  0.31740000  0.46930000  0.17980000  1
  C  C1385  1  0.35500000  0.48400000  0.18950000  1
  C  C1386  1  0.38470000  0.49050000  0.16170000  1
  C  C1387  1  0.28810000  0.46270000  0.20870000  1
  C  C1388  1  0.26380000  0.46070000  0.23510000  1
  C  C1389  1  0.25730000  0.44430000  0.09240000  1
  C  C1390  1  0.21480000  0.43220000  0.09430000  1
  C  C1391  1  0.19010000  0.46310000  0.11790000  1
  C  C1392  1  0.23140000  0.53610000  0.12890000  1
  C  C1393  1  0.20040000  0.42770000  0.05120000  1
  C  C1394  1  0.12660000  0.46460000  0.03530000  1
  C  C1395  1  0.20740000  0.39370000  0.11760000  1
  C  C1396  1  0.27420000  0.34500000  0.13000000  1
  C  C1397  1  0.41000000  0.49260000  0.90440000  1
  C  C1398  1  0.33870000  0.48620000  0.88370000  1
  C  C1399  1  0.30990000  0.48020000  0.85650000  1
  C  C1400  1  0.26480000  0.45540000  0.76410000  1
  C  C1401  1  0.25800000  0.50920000  0.89570000  1
  C  C1402  1  0.21090000  0.50990000  0.89340000  1
  C  C1403  1  0.19830000  0.52670000  0.85720000  1
  C  C1404  1  0.18590000  0.57270000  0.79820000  1
  C  C1405  1  0.19930000  0.53760000  0.92480000  1
  C  C1406  1  0.13830000  0.56930000  0.97830000  1
  C  C1407  1  0.19570000  0.46770000  0.89950000  1
  C  C1408  1  0.25470000  0.41440000  0.92650000  1
  C  C1409  1  0.37730000  0.49000000  0.87470000  1
  C  C1410  1  0.32260000  0.48350000  0.81570000  1
  C  C1411  1  0.36240000  0.47620000  0.80770000  1
  C  C1412  1  0.39100000  0.47940000  0.83730000  1
  C  C1413  1  0.29390000  0.48020000  0.78530000  1
  C  C1414  1  0.40530000  0.00280000  0.40820000  1
  C  C1415  1  0.37450000  0.01350000  0.37810000  1
  C  C1416  1  0.33620000  0.02710000  0.38940000  1
  C  C1417  1  0.30870000  0.03580000  0.36130000  1
  C  C1418  1  0.31740000  0.03070000  0.32020000  1
  C  C1419  1  0.35500000  0.01600000  0.31050000  1
  C  C1420  1  0.38470000  0.00950000  0.33830000  1
  C  C1421  1  0.28810000  0.03730000  0.29130000  1
  C  C1422  1  0.26380000  0.03930000  0.26490000  1
  C  C1423  1  0.25730000  0.05570000  0.40760000  1
  C  C1424  1  0.21480000  0.06780000  0.40570000  1
  C  C1425  1  0.19010000  0.03690000  0.38210000  1
  C  C1426  1  0.23140000  0.96390000  0.37110000  1
  C  C1427  1  0.20040000  0.07230000  0.44880000  1
  C  C1428  1  0.12660000  0.03540000  0.46470000  1
  C  C1429  1  0.20740000  0.10630000  0.38240000  1
  C  C1430  1  0.27420000  0.15500000  0.37000000  1
  C  C1431  1  0.41000000  0.00740000  0.59560000  1
  C  C1432  1  0.33870000  0.01380000  0.61630000  1
  C  C1433  1  0.30990000  0.01980000  0.64350000  1
  C  C1434  1  0.26480000  0.04460000  0.73590000  1
  C  C1435  1  0.25800000  0.99080000  0.60430000  1
  C  C1436  1  0.21090000  0.99010000  0.60660000  1
  C  C1437  1  0.19830000  0.97330000  0.64280000  1
  C  C1438  1  0.18590000  0.92730000  0.70180000  1
  C  C1439  1  0.19930000  0.96240000  0.57520000  1
  C  C1440  1  0.13830000  0.93070000  0.52170000  1
  C  C1441  1  0.19570000  0.03230000  0.60050000  1
  C  C1442  1  0.25470000  0.08560000  0.57350000  1
  C  C1443  1  0.37730000  0.01000000  0.62530000  1
  C  C1444  1  0.32260000  0.01650000  0.68430000  1
  C  C1445  1  0.36240000  0.02380000  0.69230000  1
  C  C1446  1  0.39100000  0.02060000  0.66270000  1
  C  C1447  1  0.29390000  0.01980000  0.71470000  1
  C  C1448  1  0.59180000  0.90530000  0.50280000  1
  C  C1449  1  0.62190000  0.87450000  0.51350000  1
  C  C1450  1  0.61060000  0.83620000  0.52710000  1
  C  C1451  1  0.63870000  0.80870000  0.53580000  1
  C  C1452  1  0.67980000  0.81740000  0.53070000  1
  C  C1453  1  0.68950000  0.85500000  0.51600000  1
  C  C1454  1  0.66170000  0.88470000  0.50950000  1
  C  C1455  1  0.70870000  0.78810000  0.53730000  1
  C  C1456  1  0.73510000  0.76380000  0.53930000  1
  C  C1457  1  0.59240000  0.75730000  0.55570000  1
  C  C1458  1  0.59430000  0.71480000  0.56780000  1
  C  C1459  1  0.61790000  0.69010000  0.53690000  1
  C  C1460  1  0.62890000  0.73140000  0.46390000  1
  C  C1461  1  0.55120000  0.70040000  0.57230000  1
  C  C1462  1  0.53530000  0.62660000  0.53540000  1
  C  C1463  1  0.61760000  0.70740000  0.60630000  1
  C  C1464  1  0.63000000  0.77420000  0.65500000  1
  C  C1465  1  0.40440000  0.91000000  0.50740000  1
  C  C1466  1  0.38370000  0.83870000  0.51380000  1
  C  C1467  1  0.35650000  0.80990000  0.51980000  1
  C  C1468  1  0.26410000  0.76480000  0.54460000  1
  C  C1469  1  0.39570000  0.75800000  0.49080000  1
  C  C1470  1  0.39340000  0.71090000  0.49010000  1
  C  C1471  1  0.35720000  0.69830000  0.47330000  1
  C  C1472  1  0.29820000  0.68590000  0.42730000  1
  C  C1473  1  0.42480000  0.69930000  0.46240000  1
  C  C1474  1  0.47830000  0.63830000  0.43070000  1
  C  C1475  1  0.39950000  0.69570000  0.53230000  1
  C  C1476  1  0.42650000  0.75470000  0.58560000  1
  C  C1477  1  0.37470000  0.87730000  0.51000000  1
  C  C1478  1  0.31570000  0.82260000  0.51650000  1
  C  C1479  1  0.30770000  0.86240000  0.52380000  1
  C  C1480  1  0.33730000  0.89100000  0.52060000  1
  C  C1481  1  0.28530000  0.79390000  0.51980000  1
  C  C1482  1  0.90820000  0.59470000  0.50280000  1
  C  C1483  1  0.87810000  0.62550000  0.51350000  1
  C  C1484  1  0.88940000  0.66380000  0.52710000  1
  C  C1485  1  0.86130000  0.69130000  0.53580000  1
  C  C1486  1  0.82020000  0.68260000  0.53070000  1
  C  C1487  1  0.81050000  0.64500000  0.51600000  1
  C  C1488  1  0.83830000  0.61530000  0.50950000  1
  C  C1489  1  0.79130000  0.71190000  0.53730000  1
  C  C1490  1  0.76490000  0.73620000  0.53930000  1
  C  C1491  1  0.90760000  0.74270000  0.55570000  1
  C  C1492  1  0.90570000  0.78520000  0.56780000  1
  C  C1493  1  0.88210000  0.80990000  0.53690000  1
  C  C1494  1  0.87110000  0.76860000  0.46390000  1
  C  C1495  1  0.94880000  0.79960000  0.57230000  1
  C  C1496  1  0.96470000  0.87340000  0.53540000  1
  C  C1497  1  0.88240000  0.79260000  0.60630000  1
  C  C1498  1  0.87000000  0.72580000  0.65500000  1
  C  C1499  1  0.09560000  0.59000000  0.50740000  1
  C  C1500  1  0.11630000  0.66130000  0.51380000  1
  C  C1501  1  0.14350000  0.69010000  0.51980000  1
  C  C1502  1  0.23590000  0.73520000  0.54460000  1
  C  C1503  1  0.10430000  0.74200000  0.49080000  1
  C  C1504  1  0.10660000  0.78910000  0.49010000  1
  C  C1505  1  0.14280000  0.80170000  0.47330000  1
  C  C1506  1  0.20180000  0.81410000  0.42730000  1
  C  C1507  1  0.07520000  0.80070000  0.46240000  1
  C  C1508  1  0.02170000  0.86170000  0.43070000  1
  C  C1509  1  0.10050000  0.80430000  0.53230000  1
  C  C1510  1  0.07350000  0.74530000  0.58560000  1
  C  C1511  1  0.12530000  0.62270000  0.51000000  1
  C  C1512  1  0.18430000  0.67740000  0.51650000  1
  C  C1513  1  0.19230000  0.63760000  0.52380000  1
  C  C1514  1  0.16270000  0.60900000  0.52060000  1
  C  C1515  1  0.21470000  0.70610000  0.51980000  1
  C  C1516  1  0.59180000  0.59470000  0.99720000  1
  C  C1517  1  0.62190000  0.62550000  0.98650000  1
  C  C1518  1  0.61060000  0.66380000  0.97290000  1
  C  C1519  1  0.63870000  0.69130000  0.96420000  1
  C  C1520  1  0.67980000  0.68260000  0.96930000  1
  C  C1521  1  0.68950000  0.64500000  0.98400000  1
  C  C1522  1  0.66170000  0.61530000  0.99050000  1
  C  C1523  1  0.70870000  0.71190000  0.96270000  1
  C  C1524  1  0.73510000  0.73620000  0.96070000  1
  C  C1525  1  0.59240000  0.74270000  0.94430000  1
  C  C1526  1  0.59430000  0.78520000  0.93220000  1
  C  C1527  1  0.61790000  0.80990000  0.96310000  1
  C  C1528  1  0.62890000  0.76860000  0.03610000  1
  C  C1529  1  0.55120000  0.79960000  0.92770000  1
  C  C1530  1  0.53530000  0.87340000  0.96460000  1
  C  C1531  1  0.61760000  0.79260000  0.89370000  1
  C  C1532  1  0.63000000  0.72580000  0.84500000  1
  C  C1533  1  0.40440000  0.59000000  0.99260000  1
  C  C1534  1  0.38370000  0.66130000  0.98620000  1
  C  C1535  1  0.35650000  0.69010000  0.98020000  1
  C  C1536  1  0.26410000  0.73520000  0.95540000  1
  C  C1537  1  0.39570000  0.74200000  0.00920000  1
  C  C1538  1  0.39340000  0.78910000  0.00990000  1
  C  C1539  1  0.35720000  0.80170000  0.02670000  1
  C  C1540  1  0.29820000  0.81410000  0.07270000  1
  C  C1541  1  0.42480000  0.80070000  0.03760000  1
  C  C1542  1  0.47830000  0.86170000  0.06930000  1
  C  C1543  1  0.39950000  0.80430000  0.96770000  1
  C  C1544  1  0.42650000  0.74530000  0.91440000  1
  C  C1545  1  0.37470000  0.62270000  0.99000000  1
  C  C1546  1  0.31570000  0.67740000  0.98350000  1
  C  C1547  1  0.30770000  0.63760000  0.97620000  1
  C  C1548  1  0.33730000  0.60900000  0.97940000  1
  C  C1549  1  0.28530000  0.70610000  0.98020000  1
  C  C1550  1  0.90820000  0.90530000  0.99720000  1
  C  C1551  1  0.87810000  0.87450000  0.98650000  1
  C  C1552  1  0.88940000  0.83620000  0.97290000  1
  C  C1553  1  0.86130000  0.80870000  0.96420000  1
  C  C1554  1  0.82020000  0.81740000  0.96930000  1
  C  C1555  1  0.81050000  0.85500000  0.98400000  1
  C  C1556  1  0.83830000  0.88470000  0.99050000  1
  C  C1557  1  0.79130000  0.78810000  0.96270000  1
  C  C1558  1  0.76490000  0.76380000  0.96070000  1
  C  C1559  1  0.90760000  0.75730000  0.94430000  1
  C  C1560  1  0.90570000  0.71480000  0.93220000  1
  C  C1561  1  0.88210000  0.69010000  0.96310000  1
  C  C1562  1  0.87110000  0.73140000  0.03610000  1
  C  C1563  1  0.94880000  0.70040000  0.92770000  1
  C  C1564  1  0.96470000  0.62660000  0.96460000  1
  C  C1565  1  0.88240000  0.70740000  0.89370000  1
  C  C1566  1  0.87000000  0.77420000  0.84500000  1
  C  C1567  1  0.09560000  0.91000000  0.99260000  1
  C  C1568  1  0.11630000  0.83870000  0.98620000  1
  C  C1569  1  0.14350000  0.80990000  0.98020000  1
  C  C1570  1  0.23590000  0.76480000  0.95540000  1
  C  C1571  1  0.10430000  0.75800000  0.00920000  1
  C  C1572  1  0.10660000  0.71090000  0.00990000  1
  C  C1573  1  0.14280000  0.69830000  0.02670000  1
  C  C1574  1  0.20180000  0.68590000  0.07270000  1
  C  C1575  1  0.07520000  0.69930000  0.03760000  1
  C  C1576  1  0.02170000  0.63830000  0.06930000  1
  C  C1577  1  0.10050000  0.69570000  0.96770000  1
  C  C1578  1  0.07350000  0.75470000  0.91440000  1
  C  C1579  1  0.12530000  0.87730000  0.99000000  1
  C  C1580  1  0.18430000  0.82260000  0.98350000  1
  C  C1581  1  0.19230000  0.86240000  0.97620000  1
  C  C1582  1  0.16270000  0.89100000  0.97940000  1
  C  C1583  1  0.21470000  0.79390000  0.98020000  1
  C  C1584  1  0.50280000  0.59180000  0.90530000  1
  C  C1585  1  0.51350000  0.62190000  0.87450000  1
  C  C1586  1  0.52710000  0.61060000  0.83620000  1
  C  C1587  1  0.53580000  0.63870000  0.80870000  1
  C  C1588  1  0.53070000  0.67980000  0.81740000  1
  C  C1589  1  0.51600000  0.68950000  0.85500000  1
  C  C1590  1  0.50950000  0.66170000  0.88470000  1
  C  C1591  1  0.53730000  0.70870000  0.78810000  1
  C  C1592  1  0.53930000  0.73510000  0.76380000  1
  C  C1593  1  0.55570000  0.59240000  0.75730000  1
  C  C1594  1  0.56780000  0.59430000  0.71480000  1
  C  C1595  1  0.53690000  0.61790000  0.69010000  1
  C  C1596  1  0.46390000  0.62890000  0.73140000  1
  C  C1597  1  0.57230000  0.55120000  0.70040000  1
  C  C1598  1  0.53540000  0.53530000  0.62660000  1
  C  C1599  1  0.60630000  0.61760000  0.70740000  1
  C  C1600  1  0.65500000  0.63000000  0.77420000  1
  C  C1601  1  0.50740000  0.40440000  0.91000000  1
  C  C1602  1  0.51380000  0.38370000  0.83870000  1
  C  C1603  1  0.51980000  0.35650000  0.80990000  1
  C  C1604  1  0.54460000  0.26410000  0.76480000  1
  C  C1605  1  0.49080000  0.39570000  0.75800000  1
  C  C1606  1  0.49010000  0.39340000  0.71090000  1
  C  C1607  1  0.47330000  0.35720000  0.69830000  1
  C  C1608  1  0.42730000  0.29820000  0.68590000  1
  C  C1609  1  0.46240000  0.42480000  0.69930000  1
  C  C1610  1  0.43070000  0.47830000  0.63830000  1
  C  C1611  1  0.53230000  0.39950000  0.69570000  1
  C  C1612  1  0.58560000  0.42650000  0.75470000  1
  C  C1613  1  0.51000000  0.37470000  0.87730000  1
  C  C1614  1  0.51650000  0.31570000  0.82260000  1
  C  C1615  1  0.52380000  0.30770000  0.86240000  1
  C  C1616  1  0.52060000  0.33730000  0.89100000  1
  C  C1617  1  0.51980000  0.28530000  0.79390000  1
  C  C1618  1  0.99720000  0.90820000  0.90530000  1
  C  C1619  1  0.98650000  0.87810000  0.87450000  1
  C  C1620  1  0.97290000  0.88940000  0.83620000  1
  C  C1621  1  0.96420000  0.86130000  0.80870000  1
  C  C1622  1  0.96930000  0.82020000  0.81740000  1
  C  C1623  1  0.98400000  0.81050000  0.85500000  1
  C  C1624  1  0.99050000  0.83830000  0.88470000  1
  C  C1625  1  0.96270000  0.79130000  0.78810000  1
  C  C1626  1  0.96070000  0.76490000  0.76380000  1
  C  C1627  1  0.94430000  0.90760000  0.75730000  1
  C  C1628  1  0.93220000  0.90570000  0.71480000  1
  C  C1629  1  0.96310000  0.88210000  0.69010000  1
  C  C1630  1  0.03610000  0.87110000  0.73140000  1
  C  C1631  1  0.92770000  0.94880000  0.70040000  1
  C  C1632  1  0.96460000  0.96470000  0.62660000  1
  C  C1633  1  0.89370000  0.88240000  0.70740000  1
  C  C1634  1  0.84500000  0.87000000  0.77420000  1
  C  C1635  1  0.99260000  0.09560000  0.91000000  1
  C  C1636  1  0.98620000  0.11630000  0.83870000  1
  C  C1637  1  0.98020000  0.14350000  0.80990000  1
  C  C1638  1  0.95540000  0.23590000  0.76480000  1
  C  C1639  1  0.00920000  0.10430000  0.75800000  1
  C  C1640  1  0.00990000  0.10660000  0.71090000  1
  C  C1641  1  0.02670000  0.14280000  0.69830000  1
  C  C1642  1  0.07270000  0.20180000  0.68590000  1
  C  C1643  1  0.03760000  0.07520000  0.69930000  1
  C  C1644  1  0.06930000  0.02170000  0.63830000  1
  C  C1645  1  0.96770000  0.10050000  0.69570000  1
  C  C1646  1  0.91440000  0.07350000  0.75470000  1
  C  C1647  1  0.99000000  0.12530000  0.87730000  1
  C  C1648  1  0.98350000  0.18430000  0.82260000  1
  C  C1649  1  0.97620000  0.19230000  0.86240000  1
  C  C1650  1  0.97940000  0.16270000  0.89100000  1
  C  C1651  1  0.98020000  0.21470000  0.79390000  1
  C  C1652  1  0.50280000  0.90820000  0.59470000  1
  C  C1653  1  0.51350000  0.87810000  0.62550000  1
  C  C1654  1  0.52710000  0.88940000  0.66380000  1
  C  C1655  1  0.53580000  0.86130000  0.69130000  1
  C  C1656  1  0.53070000  0.82020000  0.68260000  1
  C  C1657  1  0.51600000  0.81050000  0.64500000  1
  C  C1658  1  0.50950000  0.83830000  0.61530000  1
  C  C1659  1  0.53730000  0.79130000  0.71190000  1
  C  C1660  1  0.53930000  0.76490000  0.73620000  1
  C  C1661  1  0.55570000  0.90760000  0.74270000  1
  C  C1662  1  0.56780000  0.90570000  0.78520000  1
  C  C1663  1  0.53690000  0.88210000  0.80990000  1
  C  C1664  1  0.46390000  0.87110000  0.76860000  1
  C  C1665  1  0.57230000  0.94880000  0.79960000  1
  C  C1666  1  0.53540000  0.96470000  0.87340000  1
  C  C1667  1  0.60630000  0.88240000  0.79260000  1
  C  C1668  1  0.65500000  0.87000000  0.72580000  1
  C  C1669  1  0.50740000  0.09560000  0.59000000  1
  C  C1670  1  0.51380000  0.11630000  0.66130000  1
  C  C1671  1  0.51980000  0.14350000  0.69010000  1
  C  C1672  1  0.54460000  0.23590000  0.73520000  1
  C  C1673  1  0.49080000  0.10430000  0.74200000  1
  C  C1674  1  0.49010000  0.10660000  0.78910000  1
  C  C1675  1  0.47330000  0.14280000  0.80170000  1
  C  C1676  1  0.42730000  0.20180000  0.81410000  1
  C  C1677  1  0.46240000  0.07520000  0.80070000  1
  C  C1678  1  0.43070000  0.02170000  0.86170000  1
  C  C1679  1  0.53230000  0.10050000  0.80430000  1
  C  C1680  1  0.58560000  0.07350000  0.74530000  1
  C  C1681  1  0.51000000  0.12530000  0.62270000  1
  C  C1682  1  0.51650000  0.18430000  0.67740000  1
  C  C1683  1  0.52380000  0.19230000  0.63760000  1
  C  C1684  1  0.52060000  0.16270000  0.60900000  1
  C  C1685  1  0.51980000  0.21470000  0.70610000  1
  C  C1686  1  0.99720000  0.59180000  0.59470000  1
  C  C1687  1  0.98650000  0.62190000  0.62550000  1
  C  C1688  1  0.97290000  0.61060000  0.66380000  1
  C  C1689  1  0.96420000  0.63870000  0.69130000  1
  C  C1690  1  0.96930000  0.67980000  0.68260000  1
  C  C1691  1  0.98400000  0.68950000  0.64500000  1
  C  C1692  1  0.99050000  0.66170000  0.61530000  1
  C  C1693  1  0.96270000  0.70870000  0.71190000  1
  C  C1694  1  0.96070000  0.73510000  0.73620000  1
  C  C1695  1  0.94430000  0.59240000  0.74270000  1
  C  C1696  1  0.93220000  0.59430000  0.78520000  1
  C  C1697  1  0.96310000  0.61790000  0.80990000  1
  C  C1698  1  0.03610000  0.62890000  0.76860000  1
  C  C1699  1  0.92770000  0.55120000  0.79960000  1
  C  C1700  1  0.96460000  0.53530000  0.87340000  1
  C  C1701  1  0.89370000  0.61760000  0.79260000  1
  C  C1702  1  0.84500000  0.63000000  0.72580000  1
  C  C1703  1  0.99260000  0.40440000  0.59000000  1
  C  C1704  1  0.98620000  0.38370000  0.66130000  1
  C  C1705  1  0.98020000  0.35650000  0.69010000  1
  C  C1706  1  0.95540000  0.26410000  0.73520000  1
  C  C1707  1  0.00920000  0.39570000  0.74200000  1
  C  C1708  1  0.00990000  0.39340000  0.78910000  1
  C  C1709  1  0.02670000  0.35720000  0.80170000  1
  C  C1710  1  0.07270000  0.29820000  0.81410000  1
  C  C1711  1  0.03760000  0.42480000  0.80070000  1
  C  C1712  1  0.06930000  0.47830000  0.86170000  1
  C  C1713  1  0.96770000  0.39950000  0.80430000  1
  C  C1714  1  0.91440000  0.42650000  0.74530000  1
  C  C1715  1  0.99000000  0.37470000  0.62270000  1
  C  C1716  1  0.98350000  0.31570000  0.67740000  1
  C  C1717  1  0.97620000  0.30770000  0.63760000  1
  C  C1718  1  0.97940000  0.33730000  0.60900000  1
  C  C1719  1  0.98020000  0.28530000  0.70610000  1
  C  C1720  1  0.90530000  0.50280000  0.59180000  1
  C  C1721  1  0.87450000  0.51350000  0.62190000  1
  C  C1722  1  0.83620000  0.52710000  0.61060000  1
  C  C1723  1  0.80870000  0.53580000  0.63870000  1
  C  C1724  1  0.81740000  0.53070000  0.67980000  1
  C  C1725  1  0.85500000  0.51600000  0.68950000  1
  C  C1726  1  0.88470000  0.50950000  0.66170000  1
  C  C1727  1  0.78810000  0.53730000  0.70870000  1
  C  C1728  1  0.76380000  0.53930000  0.73510000  1
  C  C1729  1  0.75730000  0.55570000  0.59240000  1
  C  C1730  1  0.71480000  0.56780000  0.59430000  1
  C  C1731  1  0.69010000  0.53690000  0.61790000  1
  C  C1732  1  0.73140000  0.46390000  0.62890000  1
  C  C1733  1  0.70040000  0.57230000  0.55120000  1
  C  C1734  1  0.62660000  0.53540000  0.53530000  1
  C  C1735  1  0.70740000  0.60630000  0.61760000  1
  C  C1736  1  0.77420000  0.65500000  0.63000000  1
  C  C1737  1  0.91000000  0.50740000  0.40440000  1
  C  C1738  1  0.83870000  0.51380000  0.38370000  1
  C  C1739  1  0.80990000  0.51980000  0.35650000  1
  C  C1740  1  0.76480000  0.54460000  0.26410000  1
  C  C1741  1  0.75800000  0.49080000  0.39570000  1
  C  C1742  1  0.71090000  0.49010000  0.39340000  1
  C  C1743  1  0.69830000  0.47330000  0.35720000  1
  C  C1744  1  0.68590000  0.42730000  0.29820000  1
  C  C1745  1  0.69930000  0.46240000  0.42480000  1
  C  C1746  1  0.63830000  0.43070000  0.47830000  1
  C  C1747  1  0.69570000  0.53230000  0.39950000  1
  C  C1748  1  0.75470000  0.58560000  0.42650000  1
  C  C1749  1  0.87730000  0.51000000  0.37470000  1
  C  C1750  1  0.82260000  0.51650000  0.31570000  1
  C  C1751  1  0.86240000  0.52380000  0.30770000  1
  C  C1752  1  0.89100000  0.52060000  0.33730000  1
  C  C1753  1  0.79390000  0.51980000  0.28530000  1
  C  C1754  1  0.90530000  0.99720000  0.90820000  1
  C  C1755  1  0.87450000  0.98650000  0.87810000  1
  C  C1756  1  0.83620000  0.97290000  0.88940000  1
  C  C1757  1  0.80870000  0.96420000  0.86130000  1
  C  C1758  1  0.81740000  0.96930000  0.82020000  1
  C  C1759  1  0.85500000  0.98400000  0.81050000  1
  C  C1760  1  0.88470000  0.99050000  0.83830000  1
  C  C1761  1  0.78810000  0.96270000  0.79130000  1
  C  C1762  1  0.76380000  0.96070000  0.76490000  1
  C  C1763  1  0.75730000  0.94430000  0.90760000  1
  C  C1764  1  0.71480000  0.93220000  0.90570000  1
  C  C1765  1  0.69010000  0.96310000  0.88210000  1
  C  C1766  1  0.73140000  0.03610000  0.87110000  1
  C  C1767  1  0.70040000  0.92770000  0.94880000  1
  C  C1768  1  0.62660000  0.96460000  0.96470000  1
  C  C1769  1  0.70740000  0.89370000  0.88240000  1
  C  C1770  1  0.77420000  0.84500000  0.87000000  1
  C  C1771  1  0.91000000  0.99260000  0.09560000  1
  C  C1772  1  0.83870000  0.98620000  0.11630000  1
  C  C1773  1  0.80990000  0.98020000  0.14350000  1
  C  C1774  1  0.76480000  0.95540000  0.23590000  1
  C  C1775  1  0.75800000  0.00920000  0.10430000  1
  C  C1776  1  0.71090000  0.00990000  0.10660000  1
  C  C1777  1  0.69830000  0.02670000  0.14280000  1
  C  C1778  1  0.68590000  0.07270000  0.20180000  1
  C  C1779  1  0.69930000  0.03760000  0.07520000  1
  C  C1780  1  0.63830000  0.06930000  0.02170000  1
  C  C1781  1  0.69570000  0.96770000  0.10050000  1
  C  C1782  1  0.75470000  0.91440000  0.07350000  1
  C  C1783  1  0.87730000  0.99000000  0.12530000  1
  C  C1784  1  0.82260000  0.98350000  0.18430000  1
  C  C1785  1  0.86240000  0.97620000  0.19230000  1
  C  C1786  1  0.89100000  0.97940000  0.16270000  1
  C  C1787  1  0.79390000  0.98020000  0.21470000  1
  C  C1788  1  0.59470000  0.50280000  0.90820000  1
  C  C1789  1  0.62550000  0.51350000  0.87810000  1
  C  C1790  1  0.66380000  0.52710000  0.88940000  1
  C  C1791  1  0.69130000  0.53580000  0.86130000  1
  C  C1792  1  0.68260000  0.53070000  0.82020000  1
  C  C1793  1  0.64500000  0.51600000  0.81050000  1
  C  C1794  1  0.61530000  0.50950000  0.83830000  1
  C  C1795  1  0.71190000  0.53730000  0.79130000  1
  C  C1796  1  0.73620000  0.53930000  0.76490000  1
  C  C1797  1  0.74270000  0.55570000  0.90760000  1
  C  C1798  1  0.78520000  0.56780000  0.90570000  1
  C  C1799  1  0.80990000  0.53690000  0.88210000  1
  C  C1800  1  0.76860000  0.46390000  0.87110000  1
  C  C1801  1  0.79960000  0.57230000  0.94880000  1
  C  C1802  1  0.87340000  0.53540000  0.96470000  1
  C  C1803  1  0.79260000  0.60630000  0.88240000  1
  C  C1804  1  0.72580000  0.65500000  0.87000000  1
  C  C1805  1  0.59000000  0.50740000  0.09560000  1
  C  C1806  1  0.66130000  0.51380000  0.11630000  1
  C  C1807  1  0.69010000  0.51980000  0.14350000  1
  C  C1808  1  0.73520000  0.54460000  0.23590000  1
  C  C1809  1  0.74200000  0.49080000  0.10430000  1
  C  C1810  1  0.78910000  0.49010000  0.10660000  1
  C  C1811  1  0.80170000  0.47330000  0.14280000  1
  C  C1812  1  0.81410000  0.42730000  0.20180000  1
  C  C1813  1  0.80070000  0.46240000  0.07520000  1
  C  C1814  1  0.86170000  0.43070000  0.02170000  1
  C  C1815  1  0.80430000  0.53230000  0.10050000  1
  C  C1816  1  0.74530000  0.58560000  0.07350000  1
  C  C1817  1  0.62270000  0.51000000  0.12530000  1
  C  C1818  1  0.67740000  0.51650000  0.18430000  1
  C  C1819  1  0.63760000  0.52380000  0.19230000  1
  C  C1820  1  0.60900000  0.52060000  0.16270000  1
  C  C1821  1  0.70610000  0.51980000  0.21470000  1
  C  C1822  1  0.59470000  0.99720000  0.59180000  1
  C  C1823  1  0.62550000  0.98650000  0.62190000  1
  C  C1824  1  0.66380000  0.97290000  0.61060000  1
  C  C1825  1  0.69130000  0.96420000  0.63870000  1
  C  C1826  1  0.68260000  0.96930000  0.67980000  1
  C  C1827  1  0.64500000  0.98400000  0.68950000  1
  C  C1828  1  0.61530000  0.99050000  0.66170000  1
  C  C1829  1  0.71190000  0.96270000  0.70870000  1
  C  C1830  1  0.73620000  0.96070000  0.73510000  1
  C  C1831  1  0.74270000  0.94430000  0.59240000  1
  C  C1832  1  0.78520000  0.93220000  0.59430000  1
  C  C1833  1  0.80990000  0.96310000  0.61790000  1
  C  C1834  1  0.76860000  0.03610000  0.62890000  1
  C  C1835  1  0.79960000  0.92770000  0.55120000  1
  C  C1836  1  0.87340000  0.96460000  0.53530000  1
  C  C1837  1  0.79260000  0.89370000  0.61760000  1
  C  C1838  1  0.72580000  0.84500000  0.63000000  1
  C  C1839  1  0.59000000  0.99260000  0.40440000  1
  C  C1840  1  0.66130000  0.98620000  0.38370000  1
  C  C1841  1  0.69010000  0.98020000  0.35650000  1
  C  C1842  1  0.73520000  0.95540000  0.26410000  1
  C  C1843  1  0.74200000  0.00920000  0.39570000  1
  C  C1844  1  0.78910000  0.00990000  0.39340000  1
  C  C1845  1  0.80170000  0.02670000  0.35720000  1
  C  C1846  1  0.81410000  0.07270000  0.29820000  1
  C  C1847  1  0.80070000  0.03760000  0.42480000  1
  C  C1848  1  0.86170000  0.06930000  0.47830000  1
  C  C1849  1  0.80430000  0.96770000  0.39950000  1
  C  C1850  1  0.74530000  0.91440000  0.42650000  1
  C  C1851  1  0.62270000  0.99000000  0.37470000  1
  C  C1852  1  0.67740000  0.98350000  0.31570000  1
  C  C1853  1  0.63760000  0.97620000  0.30770000  1
  C  C1854  1  0.60900000  0.97940000  0.33730000  1
  C  C1855  1  0.70610000  0.98020000  0.28530000  1
  S  S1856  1  0.65410000  0.28680000  0.57500000  1
  S  S1857  1  0.40110000  0.30740000  0.51310000  1
  S  S1858  1  0.45580000  0.35074000  0.41530000  1
  S  S1859  1  0.40350000  0.26900000  0.34880000  1
  S  S1860  1  0.57160000  0.35230000  0.54800000  1
  S  S1861  1  0.55530000  0.28880000  0.44190000  1
  S  S1862  1  0.84590000  0.21320000  0.57500000  1
  S  S1863  1  0.09890000  0.19260000  0.51310000  1
  S  S1864  1  0.04420000  0.14926000  0.41530000  1
  S  S1865  1  0.09650000  0.23100000  0.34880000  1
  S  S1866  1  0.92840000  0.14770000  0.54800000  1
  S  S1867  1  0.94470000  0.21120000  0.44190000  1
  S  S1868  1  0.65410000  0.21320000  0.92500000  1
  S  S1869  1  0.40110000  0.19260000  0.98690000  1
  S  S1870  1  0.45580000  0.14926000  0.08470000  1
  S  S1871  1  0.40350000  0.23100000  0.15120000  1
  S  S1872  1  0.57160000  0.14770000  0.95200000  1
  S  S1873  1  0.55530000  0.21120000  0.05810000  1
  S  S1874  1  0.84590000  0.28680000  0.92500000  1
  S  S1875  1  0.09890000  0.30740000  0.98690000  1
  S  S1876  1  0.04420000  0.35074000  0.08470000  1
  S  S1877  1  0.09650000  0.26900000  0.15120000  1
  S  S1878  1  0.92840000  0.35230000  0.95200000  1
  S  S1879  1  0.94470000  0.28880000  0.05810000  1
  S  S1880  1  0.57500000  0.65410000  0.28680000  1
  S  S1881  1  0.51310000  0.40110000  0.30740000  1
  S  S1882  1  0.41530000  0.45580000  0.35074000  1
  S  S1883  1  0.34880000  0.40350000  0.26900000  1
  S  S1884  1  0.54800000  0.57160000  0.35230000  1
  S  S1885  1  0.44190000  0.55530000  0.28880000  1
  S  S1886  1  0.92500000  0.84590000  0.28680000  1
  S  S1887  1  0.98690000  0.09890000  0.30740000  1
  S  S1888  1  0.08470000  0.04420000  0.35074000  1
  S  S1889  1  0.15120000  0.09650000  0.26900000  1
  S  S1890  1  0.95200000  0.92840000  0.35230000  1
  S  S1891  1  0.05810000  0.94470000  0.28880000  1
  S  S1892  1  0.57500000  0.84590000  0.21320000  1
  S  S1893  1  0.51310000  0.09890000  0.19260000  1
  S  S1894  1  0.41530000  0.04420000  0.14926000  1
  S  S1895  1  0.34880000  0.09650000  0.23100000  1
  S  S1896  1  0.54800000  0.92840000  0.14770000  1
  S  S1897  1  0.44190000  0.94470000  0.21120000  1
  S  S1898  1  0.92500000  0.65410000  0.21320000  1
  S  S1899  1  0.98690000  0.40110000  0.19260000  1
  S  S1900  1  0.08470000  0.45580000  0.14926000  1
  S  S1901  1  0.15120000  0.40350000  0.23100000  1
  S  S1902  1  0.95200000  0.57160000  0.14770000  1
  S  S1903  1  0.05810000  0.55530000  0.21120000  1
  S  S1904  1  0.28680000  0.57500000  0.65410000  1
  S  S1905  1  0.30740000  0.51310000  0.40110000  1
  S  S1906  1  0.35074000  0.41530000  0.45580000  1
  S  S1907  1  0.26900000  0.34880000  0.40350000  1
  S  S1908  1  0.35230000  0.54800000  0.57160000  1
  S  S1909  1  0.28880000  0.44190000  0.55530000  1
  S  S1910  1  0.28680000  0.92500000  0.84590000  1
  S  S1911  1  0.30740000  0.98690000  0.09890000  1
  S  S1912  1  0.35074000  0.08470000  0.04420000  1
  S  S1913  1  0.26900000  0.15120000  0.09650000  1
  S  S1914  1  0.35230000  0.95200000  0.92840000  1
  S  S1915  1  0.28880000  0.05810000  0.94470000  1
  S  S1916  1  0.21320000  0.57500000  0.84590000  1
  S  S1917  1  0.19260000  0.51310000  0.09890000  1
  S  S1918  1  0.14926000  0.41530000  0.04420000  1
  S  S1919  1  0.23100000  0.34880000  0.09650000  1
  S  S1920  1  0.14770000  0.54800000  0.92840000  1
  S  S1921  1  0.21120000  0.44190000  0.94470000  1
  S  S1922  1  0.21320000  0.92500000  0.65410000  1
  S  S1923  1  0.19260000  0.98690000  0.40110000  1
  S  S1924  1  0.14926000  0.08470000  0.45580000  1
  S  S1925  1  0.23100000  0.15120000  0.40350000  1
  S  S1926  1  0.14770000  0.95200000  0.57160000  1
  S  S1927  1  0.21120000  0.05810000  0.55530000  1
  S  S1928  1  0.34590000  0.71320000  0.42500000  1
  S  S1929  1  0.59890000  0.69260000  0.48690000  1
  S  S1930  1  0.54420000  0.64926000  0.58470000  1
  S  S1931  1  0.59650000  0.73100000  0.65120000  1
  S  S1932  1  0.42840000  0.64770000  0.45200000  1
  S  S1933  1  0.44470000  0.71120000  0.55810000  1
  S  S1934  1  0.15410000  0.78680000  0.42500000  1
  S  S1935  1  0.90110000  0.80740000  0.48690000  1
  S  S1936  1  0.95580000  0.85074000  0.58470000  1
  S  S1937  1  0.90350000  0.76900000  0.65120000  1
  S  S1938  1  0.07160000  0.85230000  0.45200000  1
  S  S1939  1  0.05530000  0.78880000  0.55810000  1
  S  S1940  1  0.34590000  0.78680000  0.07500000  1
  S  S1941  1  0.59890000  0.80740000  0.01310000  1
  S  S1942  1  0.54420000  0.85074000  0.91530000  1
  S  S1943  1  0.59650000  0.76900000  0.84880000  1
  S  S1944  1  0.42840000  0.85230000  0.04800000  1
  S  S1945  1  0.44470000  0.78880000  0.94190000  1
  S  S1946  1  0.15410000  0.71320000  0.07500000  1
  S  S1947  1  0.90110000  0.69260000  0.01310000  1
  S  S1948  1  0.95580000  0.64926000  0.91530000  1
  S  S1949  1  0.90350000  0.73100000  0.84880000  1
  S  S1950  1  0.07160000  0.64770000  0.04800000  1
  S  S1951  1  0.05530000  0.71120000  0.94190000  1
  S  S1952  1  0.42500000  0.34590000  0.71320000  1
  S  S1953  1  0.48690000  0.59890000  0.69260000  1
  S  S1954  1  0.58470000  0.54420000  0.64926000  1
  S  S1955  1  0.65120000  0.59650000  0.73100000  1
  S  S1956  1  0.45200000  0.42840000  0.64770000  1
  S  S1957  1  0.55810000  0.44470000  0.71120000  1
  S  S1958  1  0.07500000  0.15410000  0.71320000  1
  S  S1959  1  0.01310000  0.90110000  0.69260000  1
  S  S1960  1  0.91530000  0.95580000  0.64926000  1
  S  S1961  1  0.84880000  0.90350000  0.73100000  1
  S  S1962  1  0.04800000  0.07160000  0.64770000  1
  S  S1963  1  0.94190000  0.05530000  0.71120000  1
  S  S1964  1  0.42500000  0.15410000  0.78680000  1
  S  S1965  1  0.48690000  0.90110000  0.80740000  1
  S  S1966  1  0.58470000  0.95580000  0.85074000  1
  S  S1967  1  0.65120000  0.90350000  0.76900000  1
  S  S1968  1  0.45200000  0.07160000  0.85230000  1
  S  S1969  1  0.55810000  0.05530000  0.78880000  1
  S  S1970  1  0.07500000  0.34590000  0.78680000  1
  S  S1971  1  0.01310000  0.59890000  0.80740000  1
  S  S1972  1  0.91530000  0.54420000  0.85074000  1
  S  S1973  1  0.84880000  0.59650000  0.76900000  1
  S  S1974  1  0.04800000  0.42840000  0.85230000  1
  S  S1975  1  0.94190000  0.44470000  0.78880000  1
  S  S1976  1  0.71320000  0.42500000  0.34590000  1
  S  S1977  1  0.69260000  0.48690000  0.59890000  1
  S  S1978  1  0.64926000  0.58470000  0.54420000  1
  S  S1979  1  0.73100000  0.65120000  0.59650000  1
  S  S1980  1  0.64770000  0.45200000  0.42840000  1
  S  S1981  1  0.71120000  0.55810000  0.44470000  1
  S  S1982  1  0.71320000  0.07500000  0.15410000  1
  S  S1983  1  0.69260000  0.01310000  0.90110000  1
  S  S1984  1  0.64926000  0.91530000  0.95580000  1
  S  S1985  1  0.73100000  0.84880000  0.90350000  1
  S  S1986  1  0.64770000  0.04800000  0.07160000  1
  S  S1987  1  0.71120000  0.94190000  0.05530000  1
  S  S1988  1  0.78680000  0.42500000  0.15410000  1
  S  S1989  1  0.80740000  0.48690000  0.90110000  1
  S  S1990  1  0.85074000  0.58470000  0.95580000  1
  S  S1991  1  0.76900000  0.65120000  0.90350000  1
  S  S1992  1  0.85230000  0.45200000  0.07160000  1
  S  S1993  1  0.78880000  0.55810000  0.05530000  1
  S  S1994  1  0.78680000  0.07500000  0.34590000  1
  S  S1995  1  0.80740000  0.01310000  0.59890000  1
  S  S1996  1  0.85074000  0.91530000  0.54420000  1
  S  S1997  1  0.76900000  0.84880000  0.59650000  1
  S  S1998  1  0.85230000  0.04800000  0.42840000  1
  S  S1999  1  0.78880000  0.94190000  0.44470000  1
  Cl  Cl2000  1  0.69730000  0.35070000  0.43980000  1
  Cl  Cl2001  1  0.61870000  0.34920000  0.34350000  1
  Cl  Cl2002  1  0.80270000  0.14930000  0.43980000  1
  Cl  Cl2003  1  0.88130000  0.15080000  0.34350000  1
  Cl  Cl2004  1  0.69730000  0.14930000  0.06020000  1
  Cl  Cl2005  1  0.61870000  0.15080000  0.15650000  1
  Cl  Cl2006  1  0.80270000  0.35070000  0.06020000  1
  Cl  Cl2007  1  0.88130000  0.34920000  0.15650000  1
  Cl  Cl2008  1  0.43980000  0.69730000  0.35070000  1
  Cl  Cl2009  1  0.34350000  0.61870000  0.34920000  1
  Cl  Cl2010  1  0.06020000  0.80270000  0.35070000  1
  Cl  Cl2011  1  0.15650000  0.88130000  0.34920000  1
  Cl  Cl2012  1  0.43980000  0.80270000  0.14930000  1
  Cl  Cl2013  1  0.34350000  0.88130000  0.15080000  1
  Cl  Cl2014  1  0.06020000  0.69730000  0.14930000  1
  Cl  Cl2015  1  0.15650000  0.61870000  0.15080000  1
  Cl  Cl2016  1  0.35070000  0.43980000  0.69730000  1
  Cl  Cl2017  1  0.34920000  0.34350000  0.61870000  1
  Cl  Cl2018  1  0.35070000  0.06020000  0.80270000  1
  Cl  Cl2019  1  0.34920000  0.15650000  0.88130000  1
  Cl  Cl2020  1  0.14930000  0.43980000  0.80270000  1
  Cl  Cl2021  1  0.15080000  0.34350000  0.88130000  1
  Cl  Cl2022  1  0.14930000  0.06020000  0.69730000  1
  Cl  Cl2023  1  0.15080000  0.15650000  0.61870000  1
  Cl  Cl2024  1  0.30270000  0.64930000  0.56020000  1
  Cl  Cl2025  1  0.38130000  0.65080000  0.65650000  1
  Cl  Cl2026  1  0.19730000  0.85070000  0.56020000  1
  Cl  Cl2027  1  0.11870000  0.84920000  0.65650000  1
  Cl  Cl2028  1  0.30270000  0.85070000  0.93980000  1
  Cl  Cl2029  1  0.38130000  0.84920000  0.84350000  1
  Cl  Cl2030  1  0.19730000  0.64930000  0.93980000  1
  Cl  Cl2031  1  0.11870000  0.65080000  0.84350000  1
  Cl  Cl2032  1  0.56020000  0.30270000  0.64930000  1
  Cl  Cl2033  1  0.65650000  0.38130000  0.65080000  1
  Cl  Cl2034  1  0.93980000  0.19730000  0.64930000  1
  Cl  Cl2035  1  0.84350000  0.11870000  0.65080000  1
  Cl  Cl2036  1  0.56020000  0.19730000  0.85070000  1
  Cl  Cl2037  1  0.65650000  0.11870000  0.84920000  1
  Cl  Cl2038  1  0.93980000  0.30270000  0.85070000  1
  Cl  Cl2039  1  0.84350000  0.38130000  0.84920000  1
  Cl  Cl2040  1  0.64930000  0.56020000  0.30270000  1
  Cl  Cl2041  1  0.65080000  0.65650000  0.38130000  1
  Cl  Cl2042  1  0.64930000  0.93980000  0.19730000  1
  Cl  Cl2043  1  0.65080000  0.84350000  0.11870000  1
  Cl  Cl2044  1  0.85070000  0.56020000  0.19730000  1
  Cl  Cl2045  1  0.84920000  0.65650000  0.11870000  1
  Cl  Cl2046  1  0.85070000  0.93980000  0.30270000  1
  Cl  Cl2047  1  0.84920000  0.84350000  0.38130000  1
  O  O2048  1  0.36770000  0.22850000  0.44920000  1
  O  O2049  1  0.63590000  0.22980000  0.48370000  1
  O  O2050  1  0.44550000  0.10780000  0.49760000  1
  O  O2051  1  0.39660000  0.05990000  0.50100000  1
  O  O2052  1  0.56000000  0.10360000  0.49590000  1
  O  O2053  1  0.60630000  0.05450000  0.49510000  1
  O  O2054  1  0.54090000  0.03770000  0.45570000  1
  O  O2055  1  0.45900000  0.04100000  0.45900000  1
  O  O2056  1  0.13230000  0.27150000  0.44920000  1
  O  O2057  1  0.86410000  0.27020000  0.48370000  1
  O  O2058  1  0.05450000  0.39220000  0.49760000  1
  O  O2059  1  0.10340000  0.44010000  0.50100000  1
  O  O2060  1  0.94000000  0.39640000  0.49590000  1
  O  O2061  1  0.89370000  0.44550000  0.49510000  1
  O  O2062  1  0.95910000  0.46230000  0.45570000  1
  O  O2063  1  0.04100000  0.45900000  0.45900000  1
  O  O2064  1  0.36770000  0.27150000  0.05080000  1
  O  O2065  1  0.63590000  0.27020000  0.01630000  1
  O  O2066  1  0.44550000  0.39220000  0.00240000  1
  O  O2067  1  0.39660000  0.44010000  0.99900000  1
  O  O2068  1  0.56000000  0.39640000  0.00410000  1
  O  O2069  1  0.60630000  0.44550000  0.00490000  1
  O  O2070  1  0.54090000  0.46230000  0.04430000  1
  O  O2071  1  0.45900000  0.45900000  0.04100000  1
  O  O2072  1  0.13230000  0.22850000  0.05080000  1
  O  O2073  1  0.86410000  0.22980000  0.01630000  1
  O  O2074  1  0.05450000  0.10780000  0.00240000  1
  O  O2075  1  0.10340000  0.05990000  0.99900000  1
  O  O2076  1  0.94000000  0.10360000  0.00410000  1
  O  O2077  1  0.89370000  0.05450000  0.00490000  1
  O  O2078  1  0.95910000  0.03770000  0.04430000  1
  O  O2079  1  0.04100000  0.04100000  0.04100000  1
  O  O2080  1  0.44920000  0.36770000  0.22850000  1
  O  O2081  1  0.49760000  0.44550000  0.10780000  1
  O  O2082  1  0.50100000  0.39660000  0.05990000  1
  O  O2083  1  0.49590000  0.56000000  0.10360000  1
  O  O2084  1  0.49510000  0.60630000  0.05450000  1
  O  O2085  1  0.50010000  0.64350000  0.23000000  1
  O  O2086  1  0.45570000  0.54090000  0.03770000  1
  O  O2087  1  0.05080000  0.13230000  0.22850000  1
  O  O2088  1  0.00240000  0.05450000  0.10780000  1
  O  O2089  1  0.99900000  0.10340000  0.05990000  1
  O  O2090  1  0.00410000  0.94000000  0.10360000  1
  O  O2091  1  0.00490000  0.89370000  0.05450000  1
  O  O2092  1  0.99990000  0.85650000  0.23000000  1
  O  O2093  1  0.04430000  0.95910000  0.03770000  1
  O  O2094  1  0.44920000  0.13230000  0.27150000  1
  O  O2095  1  0.49760000  0.05450000  0.39220000  1
  O  O2096  1  0.50100000  0.10340000  0.44010000  1
  O  O2097  1  0.49590000  0.94000000  0.39640000  1
  O  O2098  1  0.49510000  0.89370000  0.44550000  1
  O  O2099  1  0.50010000  0.85650000  0.27000000  1
  O  O2100  1  0.45570000  0.95910000  0.46230000  1
  O  O2101  1  0.05080000  0.36770000  0.27150000  1
  O  O2102  1  0.01630000  0.63590000  0.27020000  1
  O  O2103  1  0.00240000  0.44550000  0.39220000  1
  O  O2104  1  0.99900000  0.39660000  0.44010000  1
  O  O2105  1  0.00410000  0.56000000  0.39640000  1
  O  O2106  1  0.00490000  0.60630000  0.44550000  1
  O  O2107  1  0.04430000  0.54090000  0.46230000  1
  O  O2108  1  0.22850000  0.44920000  0.36770000  1
  O  O2109  1  0.10780000  0.49760000  0.44550000  1
  O  O2110  1  0.05990000  0.50100000  0.39660000  1
  O  O2111  1  0.10360000  0.49590000  0.56000000  1
  O  O2112  1  0.05450000  0.49510000  0.60630000  1
  O  O2113  1  0.23000000  0.50010000  0.64350000  1
  O  O2114  1  0.03770000  0.45570000  0.54090000  1
  O  O2115  1  0.22850000  0.05080000  0.13230000  1
  O  O2116  1  0.10780000  0.00240000  0.05450000  1
  O  O2117  1  0.05990000  0.99900000  0.10340000  1
  O  O2118  1  0.10360000  0.00410000  0.94000000  1
  O  O2119  1  0.05450000  0.00490000  0.89370000  1
  O  O2120  1  0.23000000  0.99990000  0.85650000  1
  O  O2121  1  0.03770000  0.04430000  0.95910000  1
  O  O2122  1  0.27150000  0.44920000  0.13230000  1
  O  O2123  1  0.27020000  0.48370000  0.86410000  1
  O  O2124  1  0.39220000  0.49760000  0.05450000  1
  O  O2125  1  0.44010000  0.50100000  0.10340000  1
  O  O2126  1  0.39640000  0.49590000  0.94000000  1
  O  O2127  1  0.44550000  0.49510000  0.89370000  1
  O  O2128  1  0.46230000  0.45570000  0.95910000  1
  O  O2129  1  0.27150000  0.05080000  0.36770000  1
  O  O2130  1  0.27020000  0.01630000  0.63590000  1
  O  O2131  1  0.39220000  0.00240000  0.44550000  1
  O  O2132  1  0.44010000  0.99900000  0.39660000  1
  O  O2133  1  0.39640000  0.00410000  0.56000000  1
  O  O2134  1  0.44550000  0.00490000  0.60630000  1
  O  O2135  1  0.46230000  0.04430000  0.54090000  1
  O  O2136  1  0.63230000  0.77150000  0.55080000  1
  O  O2137  1  0.36410000  0.77020000  0.51630000  1
  O  O2138  1  0.55450000  0.89220000  0.50240000  1
  O  O2139  1  0.60340000  0.94010000  0.49900000  1
  O  O2140  1  0.44000000  0.89640000  0.50410000  1
  O  O2141  1  0.39370000  0.94550000  0.50490000  1
  O  O2142  1  0.45910000  0.96230000  0.54430000  1
  O  O2143  1  0.54100000  0.95900000  0.54100000  1
  O  O2144  1  0.86770000  0.72850000  0.55080000  1
  O  O2145  1  0.13590000  0.72980000  0.51630000  1
  O  O2146  1  0.94550000  0.60780000  0.50240000  1
  O  O2147  1  0.89660000  0.55990000  0.49900000  1
  O  O2148  1  0.06000000  0.60360000  0.50410000  1
  O  O2149  1  0.10630000  0.55450000  0.50490000  1
  O  O2150  1  0.04090000  0.53770000  0.54430000  1
  O  O2151  1  0.95900000  0.54100000  0.54100000  1
  O  O2152  1  0.63230000  0.72850000  0.94920000  1
  O  O2153  1  0.36410000  0.72980000  0.98370000  1
  O  O2154  1  0.55450000  0.60780000  0.99760000  1
  O  O2155  1  0.60340000  0.55990000  0.00100000  1
  O  O2156  1  0.44000000  0.60360000  0.99590000  1
  O  O2157  1  0.39370000  0.55450000  0.99510000  1
  O  O2158  1  0.45910000  0.53770000  0.95570000  1
  O  O2159  1  0.54100000  0.54100000  0.95900000  1
  O  O2160  1  0.86770000  0.77150000  0.94920000  1
  O  O2161  1  0.13590000  0.77020000  0.98370000  1
  O  O2162  1  0.94550000  0.89220000  0.99760000  1
  O  O2163  1  0.89660000  0.94010000  0.00100000  1
  O  O2164  1  0.06000000  0.89640000  0.99590000  1
  O  O2165  1  0.10630000  0.94550000  0.99510000  1
  O  O2166  1  0.04090000  0.96230000  0.95570000  1
  O  O2167  1  0.95900000  0.95900000  0.95900000  1
  O  O2168  1  0.55080000  0.63230000  0.77150000  1
  O  O2169  1  0.51630000  0.36410000  0.77020000  1
  O  O2170  1  0.50240000  0.55450000  0.89220000  1
  O  O2171  1  0.49900000  0.60340000  0.94010000  1
  O  O2172  1  0.50410000  0.44000000  0.89640000  1
  O  O2173  1  0.50490000  0.39370000  0.94550000  1
  O  O2174  1  0.54430000  0.45910000  0.96230000  1
  O  O2175  1  0.94920000  0.86770000  0.77150000  1
  O  O2176  1  0.98370000  0.13590000  0.77020000  1
  O  O2177  1  0.99760000  0.94550000  0.89220000  1
  O  O2178  1  0.00100000  0.89660000  0.94010000  1
  O  O2179  1  0.99590000  0.06000000  0.89640000  1
  O  O2180  1  0.99510000  0.10630000  0.94550000  1
  O  O2181  1  0.95570000  0.04090000  0.96230000  1
  O  O2182  1  0.55080000  0.86770000  0.72850000  1
  O  O2183  1  0.51630000  0.13590000  0.72980000  1
  O  O2184  1  0.50240000  0.94550000  0.60780000  1
  O  O2185  1  0.49900000  0.89660000  0.55990000  1
  O  O2186  1  0.50410000  0.06000000  0.60360000  1
  O  O2187  1  0.50490000  0.10630000  0.55450000  1
  O  O2188  1  0.54430000  0.04090000  0.53770000  1
  O  O2189  1  0.94920000  0.63230000  0.72850000  1
  O  O2190  1  0.98370000  0.36410000  0.72980000  1
  O  O2191  1  0.99760000  0.55450000  0.60780000  1
  O  O2192  1  0.00100000  0.60340000  0.55990000  1
  O  O2193  1  0.99590000  0.44000000  0.60360000  1
  O  O2194  1  0.99510000  0.39370000  0.55450000  1
  O  O2195  1  0.95570000  0.45910000  0.53770000  1
  O  O2196  1  0.77150000  0.55080000  0.63230000  1
  O  O2197  1  0.77020000  0.51630000  0.36410000  1
  O  O2198  1  0.89220000  0.50240000  0.55450000  1
  O  O2199  1  0.94010000  0.49900000  0.60340000  1
  O  O2200  1  0.89640000  0.50410000  0.44000000  1
  O  O2201  1  0.94550000  0.50490000  0.39370000  1
  O  O2202  1  0.96230000  0.54430000  0.45910000  1
  O  O2203  1  0.77150000  0.94920000  0.86770000  1
  O  O2204  1  0.77020000  0.98370000  0.13590000  1
  O  O2205  1  0.89220000  0.99760000  0.94550000  1
  O  O2206  1  0.94010000  0.00100000  0.89660000  1
  O  O2207  1  0.89640000  0.99590000  0.06000000  1
  O  O2208  1  0.94550000  0.99510000  0.10630000  1
  O  O2209  1  0.96230000  0.95570000  0.04090000  1
  O  O2210  1  0.72850000  0.55080000  0.86770000  1
  O  O2211  1  0.72980000  0.51630000  0.13590000  1
  O  O2212  1  0.60780000  0.50240000  0.94550000  1
  O  O2213  1  0.55990000  0.49900000  0.89660000  1
  O  O2214  1  0.60360000  0.50410000  0.06000000  1
  O  O2215  1  0.55450000  0.50490000  0.10630000  1
  O  O2216  1  0.53770000  0.54430000  0.04090000  1
  O  O2217  1  0.72850000  0.94920000  0.63230000  1
  O  O2218  1  0.60780000  0.99760000  0.55450000  1
  O  O2219  1  0.55990000  0.00100000  0.60340000  1
  O  O2220  1  0.60360000  0.99590000  0.44000000  1
  O  O2221  1  0.55450000  0.99510000  0.39370000  1
  O  O2222  1  0.73000000  0.00010000  0.35650000  1
  O  O2223  1  0.53770000  0.95570000  0.45910000  1
