# generated using pymatgen
data_Zr9H90(C3O)40
_symmetry_space_group_name_H-M   'P 1'
_cell_length_a   27.96860000
_cell_length_b   28.35572763
_cell_length_c   28.35572763
_cell_angle_alpha   90.74811707
_cell_angle_beta   90.00000000
_cell_angle_gamma   90.00000000
_symmetry_Int_Tables_number   1
_chemical_formula_structural   Zr9H90(C3O)40
_chemical_formula_sum   'Zr36 H360 C480 O160'
_cell_volume   22486.16007844
_cell_formula_units_Z   4
loop_
 _symmetry_equiv_pos_site_id
 _symmetry_equiv_pos_as_xyz
  1  'x, y, z'
loop_
 _atom_site_type_symbol
 _atom_site_label
 _atom_site_symmetry_multiplicity
 _atom_site_fract_x
 _atom_site_fract_y
 _atom_site_fract_z
 _atom_site_occupancy
  C  C0  1  0.49150000  0.45220000  0.09180000  1
  C  C1  1  0.47210000  0.49490000  0.11010000  1
  C  C2  1  0.43310000  0.51410000  0.08710000  1
  C  C3  1  0.41340000  0.49390000  0.04610000  1
  C  C4  1  0.43340000  0.45200000  0.02800000  1
  C  C5  1  0.47330000  0.43250000  0.05050000  1
  C  C6  1  0.53020000  0.42790000  0.11910000  1
  C  C7  1  0.57800000  0.43430000  0.11070000  1
  C  C8  1  0.61230000  0.41250000  0.13650000  1
  C  C9  1  0.59870000  0.37980000  0.17140000  1
  C  C10  1  0.55110000  0.37200000  0.17920000  1
  C  C11  1  0.51710000  0.39420000  0.15320000  1
  C  C12  1  0.63640000  0.35560000  0.20020000  1
  C  C13  1  0.49050000  0.51600000  0.15560000  1
  C  C14  1  0.40680000  0.55420000  0.10980000  1
  C  C15  1  0.41590000  0.60120000  0.10120000  1
  C  C16  1  0.38890000  0.63620000  0.12420000  1
  C  C17  1  0.35510000  0.62710000  0.15670000  1
  C  C18  1  0.34500000  0.57940000  0.16660000  1
  C  C19  1  0.37130000  0.54380000  0.14180000  1
  C  C20  1  0.32740000  0.66420000  0.18300000  1
  C  C21  1  0.37170000  0.51590000  0.02170000  1
  C  C22  1  0.40980000  0.42570000  0.98730000  1
  C  C23  1  0.37170000  0.39780000  0.99940000  1
  C  C24  1  0.34570000  0.37360000  0.96460000  1
  C  C25  1  0.35860000  0.37670000  0.91810000  1
  C  C26  1  0.39680000  0.40730000  0.90730000  1
  C  C27  1  0.42180000  0.43100000  0.94260000  1
  C  C28  1  0.33070000  0.35150000  0.88190000  1
  C  C29  1  0.49570000  0.38760000  0.03160000  1
  C  C30  1  0.45200000  0.48380000  0.42420000  1
  C  C31  1  0.40860000  0.50240000  0.44260000  1
  C  C32  1  0.47470000  0.50850000  0.38190000  1
  C  C33  1  0.38510000  0.54300000  0.41860000  1
  C  C34  1  0.39630000  0.58930000  0.43130000  1
  C  C35  1  0.37640000  0.62560000  0.40700000  1
  C  C36  1  0.34470000  0.61730000  0.36930000  1
  C  C37  1  0.33420000  0.57080000  0.35780000  1
  C  C38  1  0.35410000  0.53600000  0.38140000  1
  C  C39  1  0.32370000  0.65750000  0.34210000  1
  C  C40  1  0.03920000  0.06290000  0.12310000  1
  C  C41  1  0.07970000  0.04430000  0.10330000  1
  C  C42  1  0.01760000  0.04390000  0.16810000  1
  C  C43  1  0.10330000  0.00340000  0.12780000  1
  C  C44  1  0.09040000  0.95720000  0.11820000  1
  C  C45  1  0.11330000  0.91840000  0.13920000  1
  C  C46  1  0.14740000  0.92930000  0.17470000  1
  C  C47  1  0.16030000  0.97460000  0.18280000  1
  C  C48  1  0.13790000  0.01020000  0.15960000  1
  C  C49  1  0.17050000  0.88910000  0.19910000  1
  C  C50  1  0.47230000  0.44520000  0.44520000  1
  C  C51  1  0.38520000  0.48140000  0.48140000  1
  C  C52  1  0.51430000  0.42220000  0.42220000  1
  C  C53  1  0.50940000  0.38850000  0.38850000  1
  C  C54  1  0.54610000  0.36540000  0.36540000  1
  C  C55  1  0.59260000  0.37840000  0.37840000  1
  C  C56  1  0.59930000  0.41340000  0.41340000  1
  C  C57  1  0.56250000  0.43500000  0.43500000  1
  C  C58  1  0.63380000  0.35410000  0.35410000  1
  C  C59  1  0.33730000  0.49830000  0.49830000  1
  C  C60  1  0.01800000  0.10360000  0.10360000  1
  C  C61  1  0.10000000  0.06350000  0.06350000  1
  C  C62  1  0.97720000  0.12680000  0.12680000  1
  C  C63  1  0.98710000  0.16240000  0.16240000  1
  C  C64  1  0.95090000  0.18770000  0.18770000  1
  C  C65  1  0.90430000  0.17540000  0.17540000  1
  C  C66  1  0.89380000  0.14040000  0.14040000  1
  C  C67  1  0.93060000  0.11790000  0.11790000  1
  C  C68  1  0.86510000  0.20040000  0.20040000  1
  C  C69  1  0.14500000  0.04240000  0.04240000  1
  C  C70  1  0.99150000  0.54780000  0.90820000  1
  C  C71  1  0.97210000  0.50510000  0.88990000  1
  C  C72  1  0.93310000  0.48590000  0.91290000  1
  C  C73  1  0.91340000  0.50610000  0.95390000  1
  C  C74  1  0.93340000  0.54800000  0.97200000  1
  C  C75  1  0.97330000  0.56750000  0.94950000  1
  C  C76  1  0.03020000  0.57210000  0.88090000  1
  C  C77  1  0.07800000  0.56570000  0.88930000  1
  C  C78  1  0.11230000  0.58750000  0.86350000  1
  C  C79  1  0.09870000  0.62020000  0.82860000  1
  C  C80  1  0.05110000  0.62800000  0.82080000  1
  C  C81  1  0.01710000  0.60580000  0.84680000  1
  C  C82  1  0.13640000  0.64440000  0.79980000  1
  C  C83  1  0.99050000  0.48400000  0.84440000  1
  C  C84  1  0.90680000  0.44580000  0.89020000  1
  C  C85  1  0.91590000  0.39880000  0.89880000  1
  C  C86  1  0.88890000  0.36380000  0.87580000  1
  C  C87  1  0.85510000  0.37290000  0.84330000  1
  C  C88  1  0.84500000  0.42060000  0.83340000  1
  C  C89  1  0.87130000  0.45620000  0.85820000  1
  C  C90  1  0.82740000  0.33580000  0.81700000  1
  C  C91  1  0.87170000  0.48410000  0.97830000  1
  C  C92  1  0.90980000  0.57430000  0.01270000  1
  C  C93  1  0.87170000  0.60220000  0.00060000  1
  C  C94  1  0.84570000  0.62640000  0.03540000  1
  C  C95  1  0.85860000  0.62330000  0.08190000  1
  C  C96  1  0.89680000  0.59270000  0.09270000  1
  C  C97  1  0.92180000  0.56900000  0.05740000  1
  C  C98  1  0.83070000  0.64850000  0.11810000  1
  C  C99  1  0.99570000  0.61240000  0.96840000  1
  C  C100  1  0.95200000  0.51620000  0.57580000  1
  C  C101  1  0.90860000  0.49760000  0.55740000  1
  C  C102  1  0.97470000  0.49150000  0.61810000  1
  C  C103  1  0.88510000  0.45700000  0.58140000  1
  C  C104  1  0.89630000  0.41070000  0.56870000  1
  C  C105  1  0.87640000  0.37440000  0.59300000  1
  C  C106  1  0.84470000  0.38270000  0.63070000  1
  C  C107  1  0.83420000  0.42920000  0.64220000  1
  C  C108  1  0.85410000  0.46400000  0.61860000  1
  C  C109  1  0.82370000  0.34250000  0.65790000  1
  C  C110  1  0.53920000  0.93710000  0.87690000  1
  C  C111  1  0.57970000  0.95570000  0.89670000  1
  C  C112  1  0.51760000  0.95610000  0.83190000  1
  C  C113  1  0.60330000  0.99660000  0.87220000  1
  C  C114  1  0.59040000  0.04280000  0.88180000  1
  C  C115  1  0.61330000  0.08160000  0.86080000  1
  C  C116  1  0.64740000  0.07070000  0.82530000  1
  C  C117  1  0.66030000  0.02540000  0.81720000  1
  C  C118  1  0.63790000  0.98980000  0.84040000  1
  C  C119  1  0.67050000  0.11090000  0.80090000  1
  C  C120  1  0.97230000  0.55480000  0.55480000  1
  C  C121  1  0.88520000  0.51860000  0.51860000  1
  C  C122  1  0.01430000  0.57780000  0.57780000  1
  C  C123  1  0.00940000  0.61150000  0.61150000  1
  C  C124  1  0.04610000  0.63460000  0.63460000  1
  C  C125  1  0.09260000  0.62160000  0.62160000  1
  C  C126  1  0.09930000  0.58660000  0.58660000  1
  C  C127  1  0.06250000  0.56500000  0.56500000  1
  C  C128  1  0.13380000  0.64590000  0.64590000  1
  C  C129  1  0.83730000  0.50170000  0.50170000  1
  C  C130  1  0.51800000  0.89640000  0.89640000  1
  C  C131  1  0.60000000  0.93650000  0.93650000  1
  C  C132  1  0.47720000  0.87320000  0.87320000  1
  C  C133  1  0.48710000  0.83760000  0.83760000  1
  C  C134  1  0.45090000  0.81230000  0.81230000  1
  C  C135  1  0.40430000  0.82460000  0.82460000  1
  C  C136  1  0.39380000  0.85960000  0.85960000  1
  C  C137  1  0.43060000  0.88210000  0.88210000  1
  C  C138  1  0.36510000  0.79960000  0.79960000  1
  C  C139  1  0.64500000  0.95760000  0.95760000  1
  C  C140  1  0.50850000  0.90820000  0.54780000  1
  C  C141  1  0.52790000  0.88990000  0.50510000  1
  C  C142  1  0.56690000  0.91290000  0.48590000  1
  C  C143  1  0.58660000  0.95390000  0.50610000  1
  C  C144  1  0.56660000  0.97200000  0.54800000  1
  C  C145  1  0.52670000  0.94950000  0.56750000  1
  C  C146  1  0.46980000  0.88090000  0.57210000  1
  C  C147  1  0.42200000  0.88930000  0.56570000  1
  C  C148  1  0.38770000  0.86350000  0.58750000  1
  C  C149  1  0.40130000  0.82860000  0.62020000  1
  C  C150  1  0.44890000  0.82080000  0.62800000  1
  C  C151  1  0.48290000  0.84680000  0.60580000  1
  C  C152  1  0.36360000  0.79980000  0.64440000  1
  C  C153  1  0.50950000  0.84440000  0.48400000  1
  C  C154  1  0.59320000  0.89020000  0.44580000  1
  C  C155  1  0.58410000  0.89880000  0.39880000  1
  C  C156  1  0.61110000  0.87580000  0.36380000  1
  C  C157  1  0.64490000  0.84330000  0.37290000  1
  C  C158  1  0.65500000  0.83340000  0.42060000  1
  C  C159  1  0.62870000  0.85820000  0.45620000  1
  C  C160  1  0.67260000  0.81700000  0.33580000  1
  C  C161  1  0.62830000  0.97830000  0.48410000  1
  C  C162  1  0.59020000  0.01270000  0.57430000  1
  C  C163  1  0.62830000  0.00060000  0.60220000  1
  C  C164  1  0.65430000  0.03540000  0.62640000  1
  C  C165  1  0.64140000  0.08190000  0.62330000  1
  C  C166  1  0.60320000  0.09270000  0.59270000  1
  C  C167  1  0.57820000  0.05740000  0.56900000  1
  C  C168  1  0.66930000  0.11810000  0.64850000  1
  C  C169  1  0.50430000  0.96840000  0.61240000  1
  C  C170  1  0.54800000  0.57580000  0.51620000  1
  C  C171  1  0.59140000  0.55740000  0.49760000  1
  C  C172  1  0.52530000  0.61810000  0.49150000  1
  C  C173  1  0.61490000  0.58140000  0.45700000  1
  C  C174  1  0.60370000  0.56870000  0.41070000  1
  C  C175  1  0.62360000  0.59300000  0.37440000  1
  C  C176  1  0.65530000  0.63070000  0.38270000  1
  C  C177  1  0.66580000  0.64220000  0.42920000  1
  C  C178  1  0.64590000  0.61860000  0.46400000  1
  C  C179  1  0.67630000  0.65790000  0.34250000  1
  C  C180  1  0.96080000  0.87690000  0.93710000  1
  C  C181  1  0.92030000  0.89670000  0.95570000  1
  C  C182  1  0.98240000  0.83190000  0.95610000  1
  C  C183  1  0.89670000  0.87220000  0.99660000  1
  C  C184  1  0.90960000  0.88180000  0.04280000  1
  C  C185  1  0.88670000  0.86080000  0.08160000  1
  C  C186  1  0.85260000  0.82530000  0.07070000  1
  C  C187  1  0.83970000  0.81720000  0.02540000  1
  C  C188  1  0.86210000  0.84040000  0.98980000  1
  C  C189  1  0.82950000  0.80090000  0.11090000  1
  C  C190  1  0.52770000  0.55480000  0.55480000  1
  C  C191  1  0.61480000  0.51860000  0.51860000  1
  C  C192  1  0.48570000  0.57780000  0.57780000  1
  C  C193  1  0.49060000  0.61150000  0.61150000  1
  C  C194  1  0.45390000  0.63460000  0.63460000  1
  C  C195  1  0.40740000  0.62160000  0.62160000  1
  C  C196  1  0.40070000  0.58660000  0.58660000  1
  C  C197  1  0.43750000  0.56500000  0.56500000  1
  C  C198  1  0.36620000  0.64590000  0.64590000  1
  C  C199  1  0.66270000  0.50170000  0.50170000  1
  C  C200  1  0.98200000  0.89640000  0.89640000  1
  C  C201  1  0.90000000  0.93650000  0.93650000  1
  C  C202  1  0.02280000  0.87320000  0.87320000  1
  C  C203  1  0.01290000  0.83760000  0.83760000  1
  C  C204  1  0.04910000  0.81230000  0.81230000  1
  C  C205  1  0.09570000  0.82460000  0.82460000  1
  C  C206  1  0.10620000  0.85960000  0.85960000  1
  C  C207  1  0.06940000  0.88210000  0.88210000  1
  C  C208  1  0.13490000  0.79960000  0.79960000  1
  C  C209  1  0.85500000  0.95760000  0.95760000  1
  C  C210  1  0.00850000  0.09180000  0.45220000  1
  C  C211  1  0.02790000  0.11010000  0.49490000  1
  C  C212  1  0.06690000  0.08710000  0.51410000  1
  C  C213  1  0.08660000  0.04610000  0.49390000  1
  C  C214  1  0.06660000  0.02800000  0.45200000  1
  C  C215  1  0.02670000  0.05050000  0.43250000  1
  C  C216  1  0.96980000  0.11910000  0.42790000  1
  C  C217  1  0.92200000  0.11070000  0.43430000  1
  C  C218  1  0.88770000  0.13650000  0.41250000  1
  C  C219  1  0.90130000  0.17140000  0.37980000  1
  C  C220  1  0.94890000  0.17920000  0.37200000  1
  C  C221  1  0.98290000  0.15320000  0.39420000  1
  C  C222  1  0.86360000  0.20020000  0.35560000  1
  C  C223  1  0.00950000  0.15560000  0.51600000  1
  C  C224  1  0.09320000  0.10980000  0.55420000  1
  C  C225  1  0.08410000  0.10120000  0.60120000  1
  C  C226  1  0.11110000  0.12420000  0.63620000  1
  C  C227  1  0.14490000  0.15670000  0.62710000  1
  C  C228  1  0.15500000  0.16660000  0.57940000  1
  C  C229  1  0.12870000  0.14180000  0.54380000  1
  C  C230  1  0.17260000  0.18300000  0.66420000  1
  C  C231  1  0.12830000  0.02170000  0.51590000  1
  C  C232  1  0.09020000  0.98730000  0.42570000  1
  C  C233  1  0.12830000  0.99940000  0.39780000  1
  C  C234  1  0.15430000  0.96460000  0.37360000  1
  C  C235  1  0.14140000  0.91810000  0.37670000  1
  C  C236  1  0.10320000  0.90730000  0.40730000  1
  C  C237  1  0.07820000  0.94260000  0.43100000  1
  C  C238  1  0.16930000  0.88190000  0.35150000  1
  C  C239  1  0.00430000  0.03160000  0.38760000  1
  C  C240  1  0.04800000  0.42420000  0.48380000  1
  C  C241  1  0.09140000  0.44260000  0.50240000  1
  C  C242  1  0.02530000  0.38190000  0.50850000  1
  C  C243  1  0.11490000  0.41860000  0.54300000  1
  C  C244  1  0.10370000  0.43130000  0.58930000  1
  C  C245  1  0.12360000  0.40700000  0.62560000  1
  C  C246  1  0.15530000  0.36930000  0.61730000  1
  C  C247  1  0.16580000  0.35780000  0.57080000  1
  C  C248  1  0.14590000  0.38140000  0.53600000  1
  C  C249  1  0.17630000  0.34210000  0.65750000  1
  C  C250  1  0.46080000  0.12310000  0.06290000  1
  C  C251  1  0.42030000  0.10330000  0.04430000  1
  C  C252  1  0.48240000  0.16810000  0.04390000  1
  C  C253  1  0.39670000  0.12780000  0.00340000  1
  C  C254  1  0.40960000  0.11820000  0.95720000  1
  C  C255  1  0.38670000  0.13920000  0.91840000  1
  C  C256  1  0.35260000  0.17470000  0.92930000  1
  C  C257  1  0.33970000  0.18280000  0.97460000  1
  C  C258  1  0.36210000  0.15960000  0.01020000  1
  C  C259  1  0.32950000  0.19910000  0.88910000  1
  C  C260  1  0.02770000  0.44520000  0.44520000  1
  C  C261  1  0.11480000  0.48140000  0.48140000  1
  C  C262  1  0.98570000  0.42220000  0.42220000  1
  C  C263  1  0.99060000  0.38850000  0.38850000  1
  C  C264  1  0.95390000  0.36540000  0.36540000  1
  C  C265  1  0.90740000  0.37840000  0.37840000  1
  C  C266  1  0.90070000  0.41340000  0.41340000  1
  C  C267  1  0.93750000  0.43500000  0.43500000  1
  C  C268  1  0.86620000  0.35410000  0.35410000  1
  C  C269  1  0.16270000  0.49830000  0.49830000  1
  C  C270  1  0.48200000  0.10360000  0.10360000  1
  C  C271  1  0.40000000  0.06350000  0.06350000  1
  C  C272  1  0.52280000  0.12680000  0.12680000  1
  C  C273  1  0.51290000  0.16240000  0.16240000  1
  C  C274  1  0.54910000  0.18770000  0.18770000  1
  C  C275  1  0.59570000  0.17540000  0.17540000  1
  C  C276  1  0.60620000  0.14040000  0.14040000  1
  C  C277  1  0.56940000  0.11790000  0.11790000  1
  C  C278  1  0.63490000  0.20040000  0.20040000  1
  C  C279  1  0.35500000  0.04240000  0.04240000  1
  C  C280  1  0.50850000  0.54780000  0.90820000  1
  C  C281  1  0.52790000  0.50510000  0.88990000  1
  C  C282  1  0.56690000  0.48590000  0.91290000  1
  C  C283  1  0.58660000  0.50610000  0.95390000  1
  C  C284  1  0.56660000  0.54800000  0.97200000  1
  C  C285  1  0.52670000  0.56750000  0.94950000  1
  C  C286  1  0.46980000  0.57210000  0.88090000  1
  C  C287  1  0.42200000  0.56570000  0.88930000  1
  C  C288  1  0.38770000  0.58750000  0.86350000  1
  C  C289  1  0.40130000  0.62020000  0.82860000  1
  C  C290  1  0.44890000  0.62800000  0.82080000  1
  C  C291  1  0.48290000  0.60580000  0.84680000  1
  C  C292  1  0.36360000  0.64440000  0.79980000  1
  C  C293  1  0.50950000  0.48400000  0.84440000  1
  C  C294  1  0.59320000  0.44580000  0.89020000  1
  C  C295  1  0.58410000  0.39880000  0.89880000  1
  C  C296  1  0.61110000  0.36380000  0.87580000  1
  C  C297  1  0.64490000  0.37290000  0.84330000  1
  C  C298  1  0.65500000  0.42060000  0.83340000  1
  C  C299  1  0.62870000  0.45620000  0.85820000  1
  C  C300  1  0.67260000  0.33580000  0.81700000  1
  C  C301  1  0.62830000  0.48410000  0.97830000  1
  C  C302  1  0.59020000  0.57430000  0.01270000  1
  C  C303  1  0.62830000  0.60220000  0.00060000  1
  C  C304  1  0.65430000  0.62640000  0.03540000  1
  C  C305  1  0.64140000  0.62330000  0.08190000  1
  C  C306  1  0.60320000  0.59270000  0.09270000  1
  C  C307  1  0.57820000  0.56900000  0.05740000  1
  C  C308  1  0.66930000  0.64850000  0.11810000  1
  C  C309  1  0.50430000  0.61240000  0.96840000  1
  C  C310  1  0.54800000  0.51620000  0.57580000  1
  C  C311  1  0.59140000  0.49760000  0.55740000  1
  C  C312  1  0.52530000  0.49150000  0.61810000  1
  C  C313  1  0.61490000  0.45700000  0.58140000  1
  C  C314  1  0.60370000  0.41070000  0.56870000  1
  C  C315  1  0.62360000  0.37440000  0.59300000  1
  C  C316  1  0.65530000  0.38270000  0.63070000  1
  C  C317  1  0.66580000  0.42920000  0.64220000  1
  C  C318  1  0.64590000  0.46400000  0.61860000  1
  C  C319  1  0.67630000  0.34250000  0.65790000  1
  C  C320  1  0.96080000  0.93710000  0.87690000  1
  C  C321  1  0.92030000  0.95570000  0.89670000  1
  C  C322  1  0.98240000  0.95610000  0.83190000  1
  C  C323  1  0.89670000  0.99660000  0.87220000  1
  C  C324  1  0.90960000  0.04280000  0.88180000  1
  C  C325  1  0.88670000  0.08160000  0.86080000  1
  C  C326  1  0.85260000  0.07070000  0.82530000  1
  C  C327  1  0.83970000  0.02540000  0.81720000  1
  C  C328  1  0.86210000  0.98980000  0.84040000  1
  C  C329  1  0.82950000  0.11090000  0.80090000  1
  C  C330  1  0.00850000  0.45220000  0.09180000  1
  C  C331  1  0.02790000  0.49490000  0.11010000  1
  C  C332  1  0.06690000  0.51410000  0.08710000  1
  C  C333  1  0.08660000  0.49390000  0.04610000  1
  C  C334  1  0.06660000  0.45200000  0.02800000  1
  C  C335  1  0.02670000  0.43250000  0.05050000  1
  C  C336  1  0.96980000  0.42790000  0.11910000  1
  C  C337  1  0.92200000  0.43430000  0.11070000  1
  C  C338  1  0.88770000  0.41250000  0.13650000  1
  C  C339  1  0.90130000  0.37980000  0.17140000  1
  C  C340  1  0.94890000  0.37200000  0.17920000  1
  C  C341  1  0.98290000  0.39420000  0.15320000  1
  C  C342  1  0.86360000  0.35560000  0.20020000  1
  C  C343  1  0.00950000  0.51600000  0.15560000  1
  C  C344  1  0.09320000  0.55420000  0.10980000  1
  C  C345  1  0.08410000  0.60120000  0.10120000  1
  C  C346  1  0.11110000  0.63620000  0.12420000  1
  C  C347  1  0.14490000  0.62710000  0.15670000  1
  C  C348  1  0.15500000  0.57940000  0.16660000  1
  C  C349  1  0.12870000  0.54380000  0.14180000  1
  C  C350  1  0.17260000  0.66420000  0.18300000  1
  C  C351  1  0.12830000  0.51590000  0.02170000  1
  C  C352  1  0.09020000  0.42570000  0.98730000  1
  C  C353  1  0.12830000  0.39780000  0.99940000  1
  C  C354  1  0.15430000  0.37360000  0.96460000  1
  C  C355  1  0.14140000  0.37670000  0.91810000  1
  C  C356  1  0.10320000  0.40730000  0.90730000  1
  C  C357  1  0.07820000  0.43100000  0.94260000  1
  C  C358  1  0.16930000  0.35150000  0.88190000  1
  C  C359  1  0.00430000  0.38760000  0.03160000  1
  C  C360  1  0.04800000  0.48380000  0.42420000  1
  C  C361  1  0.09140000  0.50240000  0.44260000  1
  C  C362  1  0.02530000  0.50850000  0.38190000  1
  C  C363  1  0.11490000  0.54300000  0.41860000  1
  C  C364  1  0.10370000  0.58930000  0.43130000  1
  C  C365  1  0.12360000  0.62560000  0.40700000  1
  C  C366  1  0.15530000  0.61730000  0.36930000  1
  C  C367  1  0.16580000  0.57080000  0.35780000  1
  C  C368  1  0.14590000  0.53600000  0.38140000  1
  C  C369  1  0.17630000  0.65750000  0.34210000  1
  C  C370  1  0.46080000  0.06290000  0.12310000  1
  C  C371  1  0.42030000  0.04430000  0.10330000  1
  C  C372  1  0.48240000  0.04390000  0.16810000  1
  C  C373  1  0.39670000  0.00340000  0.12780000  1
  C  C374  1  0.40960000  0.95720000  0.11820000  1
  C  C375  1  0.38670000  0.91840000  0.13920000  1
  C  C376  1  0.35260000  0.92930000  0.17470000  1
  C  C377  1  0.33970000  0.97460000  0.18280000  1
  C  C378  1  0.36210000  0.01020000  0.15960000  1
  C  C379  1  0.32950000  0.88910000  0.19910000  1
  C  C380  1  0.49150000  0.09180000  0.45220000  1
  C  C381  1  0.47210000  0.11010000  0.49490000  1
  C  C382  1  0.43310000  0.08710000  0.51410000  1
  C  C383  1  0.41340000  0.04610000  0.49390000  1
  C  C384  1  0.43340000  0.02800000  0.45200000  1
  C  C385  1  0.47330000  0.05050000  0.43250000  1
  C  C386  1  0.53020000  0.11910000  0.42790000  1
  C  C387  1  0.57800000  0.11070000  0.43430000  1
  C  C388  1  0.61230000  0.13650000  0.41250000  1
  C  C389  1  0.59870000  0.17140000  0.37980000  1
  C  C390  1  0.55110000  0.17920000  0.37200000  1
  C  C391  1  0.51710000  0.15320000  0.39420000  1
  C  C392  1  0.63640000  0.20020000  0.35560000  1
  C  C393  1  0.49050000  0.15560000  0.51600000  1
  C  C394  1  0.40680000  0.10980000  0.55420000  1
  C  C395  1  0.41590000  0.10120000  0.60120000  1
  C  C396  1  0.38890000  0.12420000  0.63620000  1
  C  C397  1  0.35510000  0.15670000  0.62710000  1
  C  C398  1  0.34500000  0.16660000  0.57940000  1
  C  C399  1  0.37130000  0.14180000  0.54380000  1
  C  C400  1  0.32740000  0.18300000  0.66420000  1
  C  C401  1  0.37170000  0.02170000  0.51590000  1
  C  C402  1  0.40980000  0.98730000  0.42570000  1
  C  C403  1  0.37170000  0.99940000  0.39780000  1
  C  C404  1  0.34570000  0.96460000  0.37360000  1
  C  C405  1  0.35860000  0.91810000  0.37670000  1
  C  C406  1  0.39680000  0.90730000  0.40730000  1
  C  C407  1  0.42180000  0.94260000  0.43100000  1
  C  C408  1  0.33070000  0.88190000  0.35150000  1
  C  C409  1  0.49570000  0.03160000  0.38760000  1
  C  C410  1  0.45200000  0.42420000  0.48380000  1
  C  C411  1  0.40860000  0.44260000  0.50240000  1
  C  C412  1  0.47470000  0.38190000  0.50850000  1
  C  C413  1  0.38510000  0.41860000  0.54300000  1
  C  C414  1  0.39630000  0.43130000  0.58930000  1
  C  C415  1  0.37640000  0.40700000  0.62560000  1
  C  C416  1  0.34470000  0.36930000  0.61730000  1
  C  C417  1  0.33420000  0.35780000  0.57080000  1
  C  C418  1  0.35410000  0.38140000  0.53600000  1
  C  C419  1  0.32370000  0.34210000  0.65750000  1
  C  C420  1  0.03920000  0.12310000  0.06290000  1
  C  C421  1  0.07970000  0.10330000  0.04430000  1
  C  C422  1  0.01760000  0.16810000  0.04390000  1
  C  C423  1  0.10330000  0.12780000  0.00340000  1
  C  C424  1  0.09040000  0.11820000  0.95720000  1
  C  C425  1  0.11330000  0.13920000  0.91840000  1
  C  C426  1  0.14740000  0.17470000  0.92930000  1
  C  C427  1  0.16030000  0.18280000  0.97460000  1
  C  C428  1  0.13790000  0.15960000  0.01020000  1
  C  C429  1  0.17050000  0.19910000  0.88910000  1
  C  C430  1  0.99150000  0.90820000  0.54780000  1
  C  C431  1  0.97210000  0.88990000  0.50510000  1
  C  C432  1  0.93310000  0.91290000  0.48590000  1
  C  C433  1  0.91340000  0.95390000  0.50610000  1
  C  C434  1  0.93340000  0.97200000  0.54800000  1
  C  C435  1  0.97330000  0.94950000  0.56750000  1
  C  C436  1  0.03020000  0.88090000  0.57210000  1
  C  C437  1  0.07800000  0.88930000  0.56570000  1
  C  C438  1  0.11230000  0.86350000  0.58750000  1
  C  C439  1  0.09870000  0.82860000  0.62020000  1
  C  C440  1  0.05110000  0.82080000  0.62800000  1
  C  C441  1  0.01710000  0.84680000  0.60580000  1
  C  C442  1  0.13640000  0.79980000  0.64440000  1
  C  C443  1  0.99050000  0.84440000  0.48400000  1
  C  C444  1  0.90680000  0.89020000  0.44580000  1
  C  C445  1  0.91590000  0.89880000  0.39880000  1
  C  C446  1  0.88890000  0.87580000  0.36380000  1
  C  C447  1  0.85510000  0.84330000  0.37290000  1
  C  C448  1  0.84500000  0.83340000  0.42060000  1
  C  C449  1  0.87130000  0.85820000  0.45620000  1
  C  C450  1  0.82740000  0.81700000  0.33580000  1
  C  C451  1  0.87170000  0.97830000  0.48410000  1
  C  C452  1  0.90980000  0.01270000  0.57430000  1
  C  C453  1  0.87170000  0.00060000  0.60220000  1
  C  C454  1  0.84570000  0.03540000  0.62640000  1
  C  C455  1  0.85860000  0.08190000  0.62330000  1
  C  C456  1  0.89680000  0.09270000  0.59270000  1
  C  C457  1  0.92180000  0.05740000  0.56900000  1
  C  C458  1  0.83070000  0.11810000  0.64850000  1
  C  C459  1  0.99570000  0.96840000  0.61240000  1
  C  C460  1  0.95200000  0.57580000  0.51620000  1
  C  C461  1  0.90860000  0.55740000  0.49760000  1
  C  C462  1  0.97470000  0.61810000  0.49150000  1
  C  C463  1  0.88510000  0.58140000  0.45700000  1
  C  C464  1  0.89630000  0.56870000  0.41070000  1
  C  C465  1  0.87640000  0.59300000  0.37440000  1
  C  C466  1  0.84470000  0.63070000  0.38270000  1
  C  C467  1  0.83420000  0.64220000  0.42920000  1
  C  C468  1  0.85410000  0.61860000  0.46400000  1
  C  C469  1  0.82370000  0.65790000  0.34250000  1
  C  C470  1  0.53920000  0.87690000  0.93710000  1
  C  C471  1  0.57970000  0.89670000  0.95570000  1
  C  C472  1  0.51760000  0.83190000  0.95610000  1
  C  C473  1  0.60330000  0.87220000  0.99660000  1
  C  C474  1  0.59040000  0.88180000  0.04280000  1
  C  C475  1  0.61330000  0.86080000  0.08160000  1
  C  C476  1  0.64740000  0.82530000  0.07070000  1
  C  C477  1  0.66030000  0.81720000  0.02540000  1
  C  C478  1  0.63790000  0.84040000  0.98980000  1
  C  C479  1  0.67050000  0.80090000  0.11090000  1
  H  H480  1  0.58749000  0.45471000  0.08609000  1
  H  H481  1  0.64515000  0.41914000  0.13106000  1
  H  H482  1  0.54156000  0.35086000  0.20314000  1
  H  H483  1  0.48428000  0.38708000  0.15796000  1
  H  H484  1  0.47997000  0.54889000  0.15843000  1
  H  H485  1  0.52549000  0.51476000  0.15592000  1
  H  H486  1  0.47792000  0.49808000  0.18226000  1
  H  H487  1  0.44036000  0.60969000  0.07975000  1
  H  H488  1  0.39475000  0.66820000  0.11636000  1
  H  H489  1  0.32127000  0.57114000  0.18908000  1
  H  H490  1  0.36408000  0.51169000  0.14761000  1
  H  H491  1  0.34366000  0.49539000  0.02453000  1
  H  H492  1  0.37933000  0.52014000  0.98832000  1
  H  H493  1  0.36471000  0.54668000  0.03634000  1
  H  H494  1  0.36294000  0.39492000  0.03166000  1
  H  H495  1  0.31900000  0.35486000  0.97322000  1
  H  H496  1  0.40555000  0.41161000  0.87531000  1
  H  H497  1  0.44761000  0.45119000  0.93453000  1
  H  H498  1  0.47657000  0.37533000  0.00525000  1
  H  H499  1  0.49683000  0.36413000  0.05669000  1
  H  H500  1  0.52824000  0.39421000  0.02073000  1
  H  H501  1  0.45010000  0.52610000  0.36498000  1
  H  H502  1  0.48895000  0.48484000  0.36068000  1
  H  H503  1  0.49955000  0.53024000  0.39312000  1
  H  H504  1  0.41761000  0.59554000  0.45674000  1
  H  H505  1  0.38406000  0.65715000  0.41569000  1
  H  H506  1  0.31263000  0.56387000  0.33269000  1
  H  H507  1  0.34654000  0.50451000  0.37231000  1
  H  H508  1  0.04103000  0.02386000  0.18398000  1
  H  H509  1  0.98905000  0.02524000  0.16046000  1
  H  H510  1  0.00872000  0.07022000  0.18908000  1
  H  H511  1  0.06504000  0.95138000  0.09650000  1
  H  H512  1  0.10628000  0.88685000  0.13005000  1
  H  H513  1  0.18506000  0.98171000  0.20477000  1
  H  H514  1  0.14747000  0.04170000  0.16642000  1
  H  H515  1  0.15428000  0.01457000  0.06035000  1
  H  H516  1  0.17076000  0.06579000  0.04373000  1
  H  H517  1  0.13895000  0.03323000  0.00953000  1
  H  H518  1  0.32709000  0.47950000  0.52528000  1
  H  H519  1  0.31383000  0.49502000  0.47282000  1
  H  H520  1  0.33959000  0.53158000  0.50800000  1
  H  H521  1  0.47770000  0.37990000  0.37990000  1
  H  H522  1  0.54010000  0.34190000  0.34190000  1
  H  H523  1  0.63099000  0.42202000  0.42202000  1
  H  H524  1  0.56809000  0.45849000  0.45849000  1
  H  H525  1  0.01956000  0.16935000  0.16935000  1
  H  H526  1  0.95804000  0.21104000  0.21104000  1
  H  H527  1  0.86156000  0.13288000  0.13288000  1
  H  H528  1  0.92303000  0.09464000  0.09464000  1
  H  H529  1  0.08749000  0.54529000  0.91391000  1
  H  H530  1  0.14515000  0.58086000  0.86894000  1
  H  H531  1  0.04156000  0.64914000  0.79686000  1
  H  H532  1  0.98428000  0.61292000  0.84204000  1
  H  H533  1  0.97997000  0.45111000  0.84157000  1
  H  H534  1  0.02549000  0.48524000  0.84408000  1
  H  H535  1  0.97792000  0.50192000  0.81774000  1
  H  H536  1  0.94036000  0.39031000  0.92025000  1
  H  H537  1  0.89475000  0.33180000  0.88364000  1
  H  H538  1  0.82127000  0.42886000  0.81092000  1
  H  H539  1  0.86408000  0.48831000  0.85239000  1
  H  H540  1  0.84366000  0.50461000  0.97547000  1
  H  H541  1  0.87933000  0.47986000  0.01168000  1
  H  H542  1  0.86471000  0.45332000  0.96366000  1
  H  H543  1  0.86294000  0.60508000  0.96834000  1
  H  H544  1  0.81900000  0.64514000  0.02678000  1
  H  H545  1  0.90555000  0.58839000  0.12469000  1
  H  H546  1  0.94761000  0.54881000  0.06547000  1
  H  H547  1  0.97657000  0.62467000  0.99475000  1
  H  H548  1  0.99683000  0.63587000  0.94331000  1
  H  H549  1  0.02824000  0.60579000  0.97927000  1
  H  H550  1  0.95010000  0.47390000  0.63502000  1
  H  H551  1  0.98895000  0.51516000  0.63932000  1
  H  H552  1  0.99955000  0.46976000  0.60688000  1
  H  H553  1  0.91761000  0.40446000  0.54326000  1
  H  H554  1  0.88406000  0.34285000  0.58431000  1
  H  H555  1  0.81263000  0.43613000  0.66731000  1
  H  H556  1  0.84654000  0.49549000  0.62769000  1
  H  H557  1  0.54103000  0.97614000  0.81602000  1
  H  H558  1  0.48905000  0.97476000  0.83954000  1
  H  H559  1  0.50872000  0.92978000  0.81092000  1
  H  H560  1  0.56504000  0.04862000  0.90350000  1
  H  H561  1  0.60628000  0.11315000  0.86995000  1
  H  H562  1  0.68506000  0.01829000  0.79523000  1
  H  H563  1  0.64747000  0.95830000  0.83358000  1
  H  H564  1  0.65428000  0.98543000  0.93965000  1
  H  H565  1  0.67076000  0.93421000  0.95627000  1
  H  H566  1  0.63895000  0.96677000  0.99047000  1
  H  H567  1  0.82709000  0.52050000  0.47472000  1
  H  H568  1  0.81383000  0.50498000  0.52718000  1
  H  H569  1  0.83959000  0.46842000  0.49200000  1
  H  H570  1  0.97770000  0.62010000  0.62010000  1
  H  H571  1  0.04010000  0.65810000  0.65810000  1
  H  H572  1  0.13099000  0.57798000  0.57798000  1
  H  H573  1  0.06809000  0.54151000  0.54151000  1
  H  H574  1  0.51956000  0.83065000  0.83065000  1
  H  H575  1  0.45804000  0.78896000  0.78896000  1
  H  H576  1  0.36156000  0.86712000  0.86712000  1
  H  H577  1  0.42303000  0.90536000  0.90536000  1
  H  H578  1  0.41251000  0.91391000  0.54529000  1
  H  H579  1  0.35485000  0.86894000  0.58086000  1
  H  H580  1  0.45844000  0.79686000  0.64914000  1
  H  H581  1  0.51572000  0.84204000  0.61292000  1
  H  H582  1  0.52003000  0.84157000  0.45111000  1
  H  H583  1  0.47451000  0.84408000  0.48524000  1
  H  H584  1  0.52208000  0.81774000  0.50192000  1
  H  H585  1  0.55964000  0.92025000  0.39031000  1
  H  H586  1  0.60525000  0.88364000  0.33180000  1
  H  H587  1  0.67873000  0.81092000  0.42886000  1
  H  H588  1  0.63592000  0.85239000  0.48831000  1
  H  H589  1  0.65634000  0.97547000  0.50461000  1
  H  H590  1  0.62067000  0.01168000  0.47986000  1
  H  H591  1  0.63529000  0.96366000  0.45332000  1
  H  H592  1  0.63706000  0.96834000  0.60508000  1
  H  H593  1  0.68100000  0.02678000  0.64514000  1
  H  H594  1  0.59445000  0.12469000  0.58839000  1
  H  H595  1  0.55239000  0.06547000  0.54881000  1
  H  H596  1  0.52343000  0.99475000  0.62467000  1
  H  H597  1  0.50317000  0.94331000  0.63587000  1
  H  H598  1  0.47176000  0.97927000  0.60579000  1
  H  H599  1  0.54990000  0.63502000  0.47390000  1
  H  H600  1  0.51105000  0.63932000  0.51516000  1
  H  H601  1  0.50045000  0.60688000  0.46976000  1
  H  H602  1  0.58239000  0.54326000  0.40446000  1
  H  H603  1  0.61594000  0.58431000  0.34285000  1
  H  H604  1  0.68737000  0.66731000  0.43613000  1
  H  H605  1  0.65346000  0.62769000  0.49549000  1
  H  H606  1  0.95897000  0.81602000  0.97614000  1
  H  H607  1  0.01095000  0.83954000  0.97476000  1
  H  H608  1  0.99128000  0.81092000  0.92978000  1
  H  H609  1  0.93496000  0.90350000  0.04862000  1
  H  H610  1  0.89372000  0.86995000  0.11315000  1
  H  H611  1  0.81494000  0.79523000  0.01829000  1
  H  H612  1  0.85253000  0.83358000  0.95830000  1
  H  H613  1  0.84572000  0.93965000  0.98543000  1
  H  H614  1  0.82924000  0.95627000  0.93421000  1
  H  H615  1  0.86105000  0.99047000  0.96677000  1
  H  H616  1  0.67291000  0.47472000  0.52050000  1
  H  H617  1  0.68617000  0.52718000  0.50498000  1
  H  H618  1  0.66041000  0.49200000  0.46842000  1
  H  H619  1  0.52230000  0.62010000  0.62010000  1
  H  H620  1  0.45990000  0.65810000  0.65810000  1
  H  H621  1  0.36901000  0.57798000  0.57798000  1
  H  H622  1  0.43191000  0.54151000  0.54151000  1
  H  H623  1  0.98044000  0.83065000  0.83065000  1
  H  H624  1  0.04196000  0.78896000  0.78896000  1
  H  H625  1  0.13844000  0.86712000  0.86712000  1
  H  H626  1  0.07697000  0.90536000  0.90536000  1
  H  H627  1  0.91251000  0.08609000  0.45471000  1
  H  H628  1  0.85485000  0.13106000  0.41914000  1
  H  H629  1  0.95844000  0.20314000  0.35086000  1
  H  H630  1  0.01572000  0.15796000  0.38708000  1
  H  H631  1  0.02003000  0.15843000  0.54889000  1
  H  H632  1  0.97451000  0.15592000  0.51476000  1
  H  H633  1  0.02208000  0.18226000  0.49808000  1
  H  H634  1  0.05964000  0.07975000  0.60969000  1
  H  H635  1  0.10525000  0.11636000  0.66820000  1
  H  H636  1  0.17873000  0.18908000  0.57114000  1
  H  H637  1  0.13592000  0.14761000  0.51169000  1
  H  H638  1  0.15634000  0.02453000  0.49539000  1
  H  H639  1  0.12067000  0.98832000  0.52014000  1
  H  H640  1  0.13529000  0.03634000  0.54668000  1
  H  H641  1  0.13706000  0.03166000  0.39492000  1
  H  H642  1  0.18100000  0.97322000  0.35486000  1
  H  H643  1  0.09445000  0.87531000  0.41161000  1
  H  H644  1  0.05239000  0.93453000  0.45119000  1
  H  H645  1  0.02343000  0.00525000  0.37533000  1
  H  H646  1  0.00317000  0.05669000  0.36413000  1
  H  H647  1  0.97176000  0.02073000  0.39421000  1
  H  H648  1  0.04990000  0.36498000  0.52610000  1
  H  H649  1  0.01105000  0.36068000  0.48484000  1
  H  H650  1  0.00045000  0.39312000  0.53024000  1
  H  H651  1  0.08239000  0.45674000  0.59554000  1
  H  H652  1  0.11594000  0.41569000  0.65715000  1
  H  H653  1  0.18737000  0.33269000  0.56387000  1
  H  H654  1  0.15346000  0.37231000  0.50451000  1
  H  H655  1  0.45897000  0.18398000  0.02386000  1
  H  H656  1  0.51095000  0.16046000  0.02524000  1
  H  H657  1  0.49128000  0.18908000  0.07022000  1
  H  H658  1  0.43496000  0.09650000  0.95138000  1
  H  H659  1  0.39372000  0.13005000  0.88685000  1
  H  H660  1  0.31494000  0.20477000  0.98171000  1
  H  H661  1  0.35253000  0.16642000  0.04170000  1
  H  H662  1  0.34572000  0.06035000  0.01457000  1
  H  H663  1  0.32924000  0.04373000  0.06579000  1
  H  H664  1  0.36105000  0.00953000  0.03323000  1
  H  H665  1  0.17291000  0.52528000  0.47950000  1
  H  H666  1  0.18617000  0.47282000  0.49502000  1
  H  H667  1  0.16041000  0.50800000  0.53158000  1
  H  H668  1  0.02230000  0.37990000  0.37990000  1
  H  H669  1  0.95990000  0.34190000  0.34190000  1
  H  H670  1  0.86901000  0.42202000  0.42202000  1
  H  H671  1  0.93191000  0.45849000  0.45849000  1
  H  H672  1  0.48044000  0.16935000  0.16935000  1
  H  H673  1  0.54196000  0.21104000  0.21104000  1
  H  H674  1  0.63844000  0.13288000  0.13288000  1
  H  H675  1  0.57697000  0.09464000  0.09464000  1
  H  H676  1  0.41251000  0.54529000  0.91391000  1
  H  H677  1  0.35485000  0.58086000  0.86894000  1
  H  H678  1  0.45844000  0.64914000  0.79686000  1
  H  H679  1  0.51572000  0.61292000  0.84204000  1
  H  H680  1  0.52003000  0.45111000  0.84157000  1
  H  H681  1  0.47451000  0.48524000  0.84408000  1
  H  H682  1  0.52208000  0.50192000  0.81774000  1
  H  H683  1  0.55964000  0.39031000  0.92025000  1
  H  H684  1  0.60525000  0.33180000  0.88364000  1
  H  H685  1  0.67873000  0.42886000  0.81092000  1
  H  H686  1  0.63592000  0.48831000  0.85239000  1
  H  H687  1  0.65634000  0.50461000  0.97547000  1
  H  H688  1  0.62067000  0.47986000  0.01168000  1
  H  H689  1  0.63529000  0.45332000  0.96366000  1
  H  H690  1  0.63706000  0.60508000  0.96834000  1
  H  H691  1  0.68100000  0.64514000  0.02678000  1
  H  H692  1  0.59445000  0.58839000  0.12469000  1
  H  H693  1  0.55239000  0.54881000  0.06547000  1
  H  H694  1  0.52343000  0.62467000  0.99475000  1
  H  H695  1  0.50317000  0.63587000  0.94331000  1
  H  H696  1  0.47176000  0.60579000  0.97927000  1
  H  H697  1  0.54990000  0.47390000  0.63502000  1
  H  H698  1  0.51105000  0.51516000  0.63932000  1
  H  H699  1  0.50045000  0.46976000  0.60688000  1
  H  H700  1  0.58239000  0.40446000  0.54326000  1
  H  H701  1  0.61594000  0.34285000  0.58431000  1
  H  H702  1  0.68737000  0.43613000  0.66731000  1
  H  H703  1  0.65346000  0.49549000  0.62769000  1
  H  H704  1  0.95897000  0.97614000  0.81602000  1
  H  H705  1  0.01095000  0.97476000  0.83954000  1
  H  H706  1  0.99128000  0.92978000  0.81092000  1
  H  H707  1  0.93496000  0.04862000  0.90350000  1
  H  H708  1  0.89372000  0.11315000  0.86995000  1
  H  H709  1  0.81494000  0.01829000  0.79523000  1
  H  H710  1  0.85253000  0.95830000  0.83358000  1
  H  H711  1  0.84572000  0.98543000  0.93965000  1
  H  H712  1  0.82924000  0.93421000  0.95627000  1
  H  H713  1  0.86105000  0.96677000  0.99047000  1
  H  H714  1  0.67291000  0.52050000  0.47472000  1
  H  H715  1  0.68617000  0.50498000  0.52718000  1
  H  H716  1  0.66041000  0.46842000  0.49200000  1
  H  H717  1  0.91251000  0.45471000  0.08609000  1
  H  H718  1  0.85485000  0.41914000  0.13106000  1
  H  H719  1  0.95844000  0.35086000  0.20314000  1
  H  H720  1  0.01572000  0.38708000  0.15796000  1
  H  H721  1  0.02003000  0.54889000  0.15843000  1
  H  H722  1  0.97451000  0.51476000  0.15592000  1
  H  H723  1  0.02208000  0.49808000  0.18226000  1
  H  H724  1  0.05964000  0.60969000  0.07975000  1
  H  H725  1  0.10525000  0.66820000  0.11636000  1
  H  H726  1  0.17873000  0.57114000  0.18908000  1
  H  H727  1  0.13592000  0.51169000  0.14761000  1
  H  H728  1  0.15634000  0.49539000  0.02453000  1
  H  H729  1  0.12067000  0.52014000  0.98832000  1
  H  H730  1  0.13529000  0.54668000  0.03634000  1
  H  H731  1  0.13706000  0.39492000  0.03166000  1
  H  H732  1  0.18100000  0.35486000  0.97322000  1
  H  H733  1  0.09445000  0.41161000  0.87531000  1
  H  H734  1  0.05239000  0.45119000  0.93453000  1
  H  H735  1  0.02343000  0.37533000  0.00525000  1
  H  H736  1  0.00317000  0.36413000  0.05669000  1
  H  H737  1  0.97176000  0.39421000  0.02073000  1
  H  H738  1  0.04990000  0.52610000  0.36498000  1
  H  H739  1  0.01105000  0.48484000  0.36068000  1
  H  H740  1  0.00045000  0.53024000  0.39312000  1
  H  H741  1  0.08239000  0.59554000  0.45674000  1
  H  H742  1  0.11594000  0.65715000  0.41569000  1
  H  H743  1  0.18737000  0.56387000  0.33269000  1
  H  H744  1  0.15346000  0.50451000  0.37231000  1
  H  H745  1  0.45897000  0.02386000  0.18398000  1
  H  H746  1  0.51095000  0.02524000  0.16046000  1
  H  H747  1  0.49128000  0.07022000  0.18908000  1
  H  H748  1  0.43496000  0.95138000  0.09650000  1
  H  H749  1  0.39372000  0.88685000  0.13005000  1
  H  H750  1  0.31494000  0.98171000  0.20477000  1
  H  H751  1  0.35253000  0.04170000  0.16642000  1
  H  H752  1  0.34572000  0.01457000  0.06035000  1
  H  H753  1  0.32924000  0.06579000  0.04373000  1
  H  H754  1  0.36105000  0.03323000  0.00953000  1
  H  H755  1  0.17291000  0.47950000  0.52528000  1
  H  H756  1  0.18617000  0.49502000  0.47282000  1
  H  H757  1  0.16041000  0.53158000  0.50800000  1
  H  H758  1  0.58749000  0.08609000  0.45471000  1
  H  H759  1  0.64515000  0.13106000  0.41914000  1
  H  H760  1  0.54156000  0.20314000  0.35086000  1
  H  H761  1  0.48428000  0.15796000  0.38708000  1
  H  H762  1  0.47997000  0.15843000  0.54889000  1
  H  H763  1  0.52549000  0.15592000  0.51476000  1
  H  H764  1  0.47792000  0.18226000  0.49808000  1
  H  H765  1  0.44036000  0.07975000  0.60969000  1
  H  H766  1  0.39475000  0.11636000  0.66820000  1
  H  H767  1  0.32127000  0.18908000  0.57114000  1
  H  H768  1  0.36408000  0.14761000  0.51169000  1
  H  H769  1  0.34366000  0.02453000  0.49539000  1
  H  H770  1  0.37933000  0.98832000  0.52014000  1
  H  H771  1  0.36471000  0.03634000  0.54668000  1
  H  H772  1  0.36294000  0.03166000  0.39492000  1
  H  H773  1  0.31900000  0.97322000  0.35486000  1
  H  H774  1  0.40555000  0.87531000  0.41161000  1
  H  H775  1  0.44761000  0.93453000  0.45119000  1
  H  H776  1  0.47657000  0.00525000  0.37533000  1
  H  H777  1  0.49683000  0.05669000  0.36413000  1
  H  H778  1  0.52824000  0.02073000  0.39421000  1
  H  H779  1  0.45010000  0.36498000  0.52610000  1
  H  H780  1  0.48895000  0.36068000  0.48484000  1
  H  H781  1  0.49955000  0.39312000  0.53024000  1
  H  H782  1  0.41761000  0.45674000  0.59554000  1
  H  H783  1  0.38406000  0.41569000  0.65715000  1
  H  H784  1  0.31263000  0.33269000  0.56387000  1
  H  H785  1  0.34654000  0.37231000  0.50451000  1
  H  H786  1  0.04103000  0.18398000  0.02386000  1
  H  H787  1  0.98905000  0.16046000  0.02524000  1
  H  H788  1  0.00872000  0.18908000  0.07022000  1
  H  H789  1  0.06504000  0.09650000  0.95138000  1
  H  H790  1  0.10628000  0.13005000  0.88685000  1
  H  H791  1  0.18506000  0.20477000  0.98171000  1
  H  H792  1  0.14747000  0.16642000  0.04170000  1
  H  H793  1  0.15428000  0.06035000  0.01457000  1
  H  H794  1  0.17076000  0.04373000  0.06579000  1
  H  H795  1  0.13895000  0.00953000  0.03323000  1
  H  H796  1  0.32709000  0.52528000  0.47950000  1
  H  H797  1  0.31383000  0.47282000  0.49502000  1
  H  H798  1  0.33959000  0.50800000  0.53158000  1
  H  H799  1  0.08749000  0.91391000  0.54529000  1
  H  H800  1  0.14515000  0.86894000  0.58086000  1
  H  H801  1  0.04156000  0.79686000  0.64914000  1
  H  H802  1  0.98428000  0.84204000  0.61292000  1
  H  H803  1  0.97997000  0.84157000  0.45111000  1
  H  H804  1  0.02549000  0.84408000  0.48524000  1
  H  H805  1  0.97792000  0.81774000  0.50192000  1
  H  H806  1  0.94036000  0.92025000  0.39031000  1
  H  H807  1  0.89475000  0.88364000  0.33180000  1
  H  H808  1  0.82127000  0.81092000  0.42886000  1
  H  H809  1  0.86408000  0.85239000  0.48831000  1
  H  H810  1  0.84366000  0.97547000  0.50461000  1
  H  H811  1  0.87933000  0.01168000  0.47986000  1
  H  H812  1  0.86471000  0.96366000  0.45332000  1
  H  H813  1  0.86294000  0.96834000  0.60508000  1
  H  H814  1  0.81900000  0.02678000  0.64514000  1
  H  H815  1  0.90555000  0.12469000  0.58839000  1
  H  H816  1  0.94761000  0.06547000  0.54881000  1
  H  H817  1  0.97657000  0.99475000  0.62467000  1
  H  H818  1  0.99683000  0.94331000  0.63587000  1
  H  H819  1  0.02824000  0.97927000  0.60579000  1
  H  H820  1  0.95010000  0.63502000  0.47390000  1
  H  H821  1  0.98895000  0.63932000  0.51516000  1
  H  H822  1  0.99955000  0.60688000  0.46976000  1
  H  H823  1  0.91761000  0.54326000  0.40446000  1
  H  H824  1  0.88406000  0.58431000  0.34285000  1
  H  H825  1  0.81263000  0.66731000  0.43613000  1
  H  H826  1  0.84654000  0.62769000  0.49549000  1
  H  H827  1  0.54103000  0.81602000  0.97614000  1
  H  H828  1  0.48905000  0.83954000  0.97476000  1
  H  H829  1  0.50872000  0.81092000  0.92978000  1
  H  H830  1  0.56504000  0.90350000  0.04862000  1
  H  H831  1  0.60628000  0.86995000  0.11315000  1
  H  H832  1  0.68506000  0.79523000  0.01829000  1
  H  H833  1  0.64747000  0.83358000  0.95830000  1
  H  H834  1  0.65428000  0.93965000  0.98543000  1
  H  H835  1  0.67076000  0.95627000  0.93421000  1
  H  H836  1  0.63895000  0.99047000  0.96677000  1
  H  H837  1  0.82709000  0.47472000  0.52050000  1
  H  H838  1  0.81383000  0.52718000  0.50498000  1
  H  H839  1  0.83959000  0.49200000  0.46842000  1
  O  O840  1  0.70790000  0.33950000  0.27850000  1
  O  O841  1  0.79380000  0.27780000  0.21340000  1
  O  O842  1  0.17860000  0.72831000  0.26521000  1
  O  O843  1  0.19450000  0.81102000  0.27098000  1
  O  O844  1  0.67930000  0.36511000  0.19109000  1
  O  O845  1  0.62320000  0.32514000  0.22886000  1
  O  O846  1  0.10910000  0.76720000  0.32720000  1
  O  O847  1  0.10820000  0.77370000  0.20950000  1
  O  O848  1  0.29800000  0.64937000  0.21267000  1
  O  O849  1  0.33730000  0.70472000  0.17308000  1
  O  O850  1  0.34120000  0.35864000  0.83820000  1
  O  O851  1  0.29900000  0.32378000  0.89544000  1
  O  O852  1  0.29700000  0.64552000  0.30750000  1
  O  O853  1  0.33480000  0.69878000  0.35530000  1
  O  O854  1  0.20180000  0.90048000  0.22916000  1
  O  O855  1  0.15960000  0.84775000  0.18725000  1
  O  O856  1  0.67440000  0.36460000  0.36460000  1
  O  O857  1  0.62150000  0.32330000  0.32330000  1
  O  O858  1  0.87770000  0.23020000  0.23020000  1
  O  O859  1  0.82370000  0.18970000  0.18970000  1
  O  O860  1  0.25000000  0.73390000  0.32030000  1
  O  O861  1  0.25000000  0.73720000  0.21100000  1
  O  O862  1  0.25000000  0.81750000  0.33930000  1
  O  O863  1  0.25000000  0.82210000  0.20110000  1
  O  O864  1  0.20790000  0.66050000  0.72150000  1
  O  O865  1  0.29380000  0.72220000  0.78660000  1
  O  O866  1  0.67860000  0.27169000  0.73479000  1
  O  O867  1  0.69450000  0.18898000  0.72902000  1
  O  O868  1  0.17930000  0.63489000  0.80891000  1
  O  O869  1  0.12320000  0.67486000  0.77114000  1
  O  O870  1  0.60910000  0.23280000  0.67280000  1
  O  O871  1  0.60820000  0.22630000  0.79050000  1
  O  O872  1  0.79800000  0.35063000  0.78733000  1
  O  O873  1  0.83730000  0.29528000  0.82692000  1
  O  O874  1  0.84120000  0.64136000  0.16180000  1
  O  O875  1  0.79900000  0.67622000  0.10456000  1
  O  O876  1  0.79700000  0.35448000  0.69250000  1
  O  O877  1  0.83480000  0.30122000  0.64470000  1
  O  O878  1  0.70180000  0.09952000  0.77084000  1
  O  O879  1  0.65960000  0.15225000  0.81275000  1
  O  O880  1  0.17440000  0.63540000  0.63540000  1
  O  O881  1  0.12150000  0.67670000  0.67670000  1
  O  O882  1  0.37770000  0.76980000  0.76980000  1
  O  O883  1  0.32370000  0.81030000  0.81030000  1
  O  O884  1  0.75000000  0.26610000  0.67970000  1
  O  O885  1  0.75000000  0.26280000  0.78900000  1
  O  O886  1  0.75000000  0.18250000  0.66070000  1
  O  O887  1  0.75000000  0.17790000  0.79890000  1
  O  O888  1  0.29210000  0.72150000  0.66050000  1
  O  O889  1  0.20620000  0.78660000  0.72220000  1
  O  O890  1  0.82140000  0.73479000  0.27169000  1
  O  O891  1  0.80550000  0.72902000  0.18898000  1
  O  O892  1  0.32070000  0.80891000  0.63489000  1
  O  O893  1  0.37680000  0.77114000  0.67486000  1
  O  O894  1  0.89090000  0.67280000  0.23280000  1
  O  O895  1  0.89180000  0.79050000  0.22630000  1
  O  O896  1  0.70200000  0.78733000  0.35063000  1
  O  O897  1  0.66270000  0.82692000  0.29528000  1
  O  O898  1  0.65880000  0.16180000  0.64136000  1
  O  O899  1  0.70100000  0.10456000  0.67622000  1
  O  O900  1  0.70300000  0.69250000  0.35448000  1
  O  O901  1  0.66520000  0.64470000  0.30122000  1
  O  O902  1  0.79820000  0.77084000  0.09952000  1
  O  O903  1  0.84040000  0.81275000  0.15225000  1
  O  O904  1  0.32560000  0.63540000  0.63540000  1
  O  O905  1  0.37850000  0.67670000  0.67670000  1
  O  O906  1  0.12230000  0.76980000  0.76980000  1
  O  O907  1  0.17630000  0.81030000  0.81030000  1
  O  O908  1  0.75000000  0.67970000  0.26610000  1
  O  O909  1  0.75000000  0.78900000  0.26280000  1
  O  O910  1  0.75000000  0.66070000  0.18250000  1
  O  O911  1  0.75000000  0.79890000  0.17790000  1
  O  O912  1  0.79210000  0.27850000  0.33950000  1
  O  O913  1  0.70620000  0.21340000  0.27780000  1
  O  O914  1  0.32140000  0.26521000  0.72831000  1
  O  O915  1  0.30550000  0.27098000  0.81102000  1
  O  O916  1  0.82070000  0.19109000  0.36511000  1
  O  O917  1  0.87680000  0.22886000  0.32514000  1
  O  O918  1  0.39090000  0.32720000  0.76720000  1
  O  O919  1  0.39180000  0.20950000  0.77370000  1
  O  O920  1  0.20200000  0.21267000  0.64937000  1
  O  O921  1  0.16270000  0.17308000  0.70472000  1
  O  O922  1  0.15880000  0.83820000  0.35864000  1
  O  O923  1  0.20100000  0.89544000  0.32378000  1
  O  O924  1  0.20300000  0.30750000  0.64552000  1
  O  O925  1  0.16520000  0.35530000  0.69878000  1
  O  O926  1  0.29820000  0.22916000  0.90048000  1
  O  O927  1  0.34040000  0.18725000  0.84775000  1
  O  O928  1  0.82560000  0.36460000  0.36460000  1
  O  O929  1  0.87850000  0.32330000  0.32330000  1
  O  O930  1  0.62230000  0.23020000  0.23020000  1
  O  O931  1  0.67630000  0.18970000  0.18970000  1
  O  O932  1  0.25000000  0.32030000  0.73390000  1
  O  O933  1  0.25000000  0.21100000  0.73720000  1
  O  O934  1  0.25000000  0.33930000  0.81750000  1
  O  O935  1  0.25000000  0.20110000  0.82210000  1
  O  O936  1  0.29210000  0.66050000  0.72150000  1
  O  O937  1  0.20620000  0.72220000  0.78660000  1
  O  O938  1  0.82140000  0.27169000  0.73479000  1
  O  O939  1  0.80550000  0.18898000  0.72902000  1
  O  O940  1  0.32070000  0.63489000  0.80891000  1
  O  O941  1  0.37680000  0.67486000  0.77114000  1
  O  O942  1  0.89090000  0.23280000  0.67280000  1
  O  O943  1  0.89180000  0.22630000  0.79050000  1
  O  O944  1  0.70200000  0.35063000  0.78733000  1
  O  O945  1  0.66270000  0.29528000  0.82692000  1
  O  O946  1  0.65880000  0.64136000  0.16180000  1
  O  O947  1  0.70100000  0.67622000  0.10456000  1
  O  O948  1  0.70300000  0.35448000  0.69250000  1
  O  O949  1  0.66520000  0.30122000  0.64470000  1
  O  O950  1  0.79820000  0.09952000  0.77084000  1
  O  O951  1  0.84040000  0.15225000  0.81275000  1
  O  O952  1  0.79210000  0.33950000  0.27850000  1
  O  O953  1  0.70620000  0.27780000  0.21340000  1
  O  O954  1  0.32140000  0.72831000  0.26521000  1
  O  O955  1  0.30550000  0.81102000  0.27098000  1
  O  O956  1  0.82070000  0.36511000  0.19109000  1
  O  O957  1  0.87680000  0.32514000  0.22886000  1
  O  O958  1  0.39090000  0.76720000  0.32720000  1
  O  O959  1  0.39180000  0.77370000  0.20950000  1
  O  O960  1  0.20200000  0.64937000  0.21267000  1
  O  O961  1  0.16270000  0.70472000  0.17308000  1
  O  O962  1  0.15880000  0.35864000  0.83820000  1
  O  O963  1  0.20100000  0.32378000  0.89544000  1
  O  O964  1  0.20300000  0.64552000  0.30750000  1
  O  O965  1  0.16520000  0.69878000  0.35530000  1
  O  O966  1  0.29820000  0.90048000  0.22916000  1
  O  O967  1  0.34040000  0.84775000  0.18725000  1
  O  O968  1  0.70790000  0.27850000  0.33950000  1
  O  O969  1  0.79380000  0.21340000  0.27780000  1
  O  O970  1  0.17860000  0.26521000  0.72831000  1
  O  O971  1  0.19450000  0.27098000  0.81102000  1
  O  O972  1  0.67930000  0.19109000  0.36511000  1
  O  O973  1  0.62320000  0.22886000  0.32514000  1
  O  O974  1  0.10910000  0.32720000  0.76720000  1
  O  O975  1  0.10820000  0.20950000  0.77370000  1
  O  O976  1  0.29800000  0.21267000  0.64937000  1
  O  O977  1  0.33730000  0.17308000  0.70472000  1
  O  O978  1  0.34120000  0.83820000  0.35864000  1
  O  O979  1  0.29900000  0.89544000  0.32378000  1
  O  O980  1  0.29700000  0.30750000  0.64552000  1
  O  O981  1  0.33480000  0.35530000  0.69878000  1
  O  O982  1  0.20180000  0.22916000  0.90048000  1
  O  O983  1  0.15960000  0.18725000  0.84775000  1
  O  O984  1  0.20790000  0.72150000  0.66050000  1
  O  O985  1  0.29380000  0.78660000  0.72220000  1
  O  O986  1  0.67860000  0.73479000  0.27169000  1
  O  O987  1  0.69450000  0.72902000  0.18898000  1
  O  O988  1  0.17930000  0.80891000  0.63489000  1
  O  O989  1  0.12320000  0.77114000  0.67486000  1
  O  O990  1  0.60910000  0.67280000  0.23280000  1
  O  O991  1  0.60820000  0.79050000  0.22630000  1
  O  O992  1  0.79800000  0.78733000  0.35063000  1
  O  O993  1  0.83730000  0.82692000  0.29528000  1
  O  O994  1  0.84120000  0.16180000  0.64136000  1
  O  O995  1  0.79900000  0.10456000  0.67622000  1
  O  O996  1  0.79700000  0.69250000  0.35448000  1
  O  O997  1  0.83480000  0.64470000  0.30122000  1
  O  O998  1  0.70180000  0.77084000  0.09952000  1
  O  O999  1  0.65960000  0.81275000  0.15225000  1
  Zr  Zr1000  1  0.18736000  0.76994000  0.33090000  1
  Zr  Zr1001  1  0.18636000  0.77552000  0.20566000  1
  Zr  Zr1002  1  0.75000000  0.33896000  0.21540000  1
  Zr  Zr1003  1  0.75000000  0.34060000  0.34060000  1
  Zr  Zr1004  1  0.75000000  0.21409000  0.21409000  1
  Zr  Zr1005  1  0.83790000  0.27721000  0.27721000  1
  Zr  Zr1006  1  0.25000000  0.68647000  0.26223000  1
  Zr  Zr1007  1  0.25000000  0.85901000  0.27355000  1
  Zr  Zr1008  1  0.68736000  0.23006000  0.66910000  1
  Zr  Zr1009  1  0.68636000  0.22448000  0.79434000  1
  Zr  Zr1010  1  0.25000000  0.66104000  0.78460000  1
  Zr  Zr1011  1  0.25000000  0.65940000  0.65940000  1
  Zr  Zr1012  1  0.25000000  0.78591000  0.78591000  1
  Zr  Zr1013  1  0.33790000  0.72279000  0.72279000  1
  Zr  Zr1014  1  0.75000000  0.31353000  0.73777000  1
  Zr  Zr1015  1  0.75000000  0.14099000  0.72645000  1
  Zr  Zr1016  1  0.81264000  0.66910000  0.23006000  1
  Zr  Zr1017  1  0.81364000  0.79434000  0.22448000  1
  Zr  Zr1018  1  0.25000000  0.78460000  0.66104000  1
  Zr  Zr1019  1  0.16210000  0.72279000  0.72279000  1
  Zr  Zr1020  1  0.75000000  0.73777000  0.31353000  1
  Zr  Zr1021  1  0.75000000  0.72645000  0.14099000  1
  Zr  Zr1022  1  0.31264000  0.33090000  0.76994000  1
  Zr  Zr1023  1  0.31364000  0.20566000  0.77552000  1
  Zr  Zr1024  1  0.75000000  0.21540000  0.33896000  1
  Zr  Zr1025  1  0.66210000  0.27721000  0.27721000  1
  Zr  Zr1026  1  0.25000000  0.26223000  0.68647000  1
  Zr  Zr1027  1  0.25000000  0.27355000  0.85901000  1
  Zr  Zr1028  1  0.81264000  0.23006000  0.66910000  1
  Zr  Zr1029  1  0.81364000  0.22448000  0.79434000  1
  Zr  Zr1030  1  0.31264000  0.76994000  0.33090000  1
  Zr  Zr1031  1  0.31364000  0.77552000  0.20566000  1
  Zr  Zr1032  1  0.18736000  0.33090000  0.76994000  1
  Zr  Zr1033  1  0.18636000  0.20566000  0.77552000  1
  Zr  Zr1034  1  0.68736000  0.66910000  0.23006000  1
  Zr  Zr1035  1  0.68636000  0.79434000  0.22448000  1
