# generated using pymatgen
data_Zr48H312C593(N9O28)8
_symmetry_space_group_name_H-M   'P 1'
_cell_length_a   18.92230000
_cell_length_b   38.90250000
_cell_length_c   38.90250000
_cell_angle_alpha   90.00000000
_cell_angle_beta   90.00000000
_cell_angle_gamma   90.00000000
_symmetry_Int_Tables_number   1
_chemical_formula_structural   Zr48H312C593(N9O28)8
_chemical_formula_sum   'Zr48 H312 C593 N72 O224'
_cell_volume   28637.09408861
_cell_formula_units_Z   1
loop_
 _symmetry_equiv_pos_site_id
 _symmetry_equiv_pos_as_xyz
  1  'x, y, z'
loop_
 _atom_site_type_symbol
 _atom_site_label
 _atom_site_symmetry_multiplicity
 _atom_site_fract_x
 _atom_site_fract_y
 _atom_site_fract_z
 _atom_site_occupancy
  Zr  Zr0  1  0.78595000  0.26363000  0.46466000  1
  Zr  Zr1  1  0.83637000  0.18925000  0.50987000  1
  Zr  Zr2  1  0.96369000  0.23566000  0.55545000  1
  Zr  Zr3  1  0.28595000  0.76363000  0.96466000  1
  Zr  Zr4  1  0.33637000  0.68925000  0.00987000  1
  Zr  Zr5  1  0.46369000  0.73566000  0.05545000  1
  Zr  Zr6  1  0.78595000  0.73637000  0.53534000  1
  Zr  Zr7  1  0.83637000  0.81075000  0.49013000  1
  Zr  Zr8  1  0.96369000  0.76434000  0.44455000  1
  Zr  Zr9  1  0.28595000  0.23637000  0.03534000  1
  Zr  Zr10  1  0.33637000  0.31075000  0.99013000  1
  Zr  Zr11  1  0.46369000  0.26434000  0.94455000  1
  Zr  Zr12  1  0.21405000  0.46466000  0.73637000  1
  Zr  Zr13  1  0.16363000  0.50987000  0.81075000  1
  Zr  Zr14  1  0.03631000  0.55545000  0.76434000  1
  Zr  Zr15  1  0.71405000  0.96466000  0.23637000  1
  Zr  Zr16  1  0.66363000  0.00987000  0.31075000  1
  Zr  Zr17  1  0.53631000  0.05545000  0.26434000  1
  Zr  Zr18  1  0.21405000  0.53534000  0.26363000  1
  Zr  Zr19  1  0.16363000  0.49013000  0.18925000  1
  Zr  Zr20  1  0.03631000  0.44455000  0.23566000  1
  Zr  Zr21  1  0.71405000  0.03534000  0.76363000  1
  Zr  Zr22  1  0.66363000  0.99013000  0.68925000  1
  Zr  Zr23  1  0.53631000  0.94455000  0.73566000  1
  Zr  Zr24  1  0.96405000  0.23637000  0.46466000  1
  Zr  Zr25  1  0.91363000  0.31075000  0.50987000  1
  Zr  Zr26  1  0.78631000  0.26434000  0.55545000  1
  Zr  Zr27  1  0.46405000  0.73637000  0.96466000  1
  Zr  Zr28  1  0.41363000  0.81075000  0.00987000  1
  Zr  Zr29  1  0.28631000  0.76434000  0.05545000  1
  Zr  Zr30  1  0.96405000  0.76363000  0.53534000  1
  Zr  Zr31  1  0.91363000  0.68925000  0.49013000  1
  Zr  Zr32  1  0.78631000  0.73566000  0.44455000  1
  Zr  Zr33  1  0.46405000  0.26363000  0.03534000  1
  Zr  Zr34  1  0.41363000  0.18925000  0.99013000  1
  Zr  Zr35  1  0.28631000  0.23566000  0.94455000  1
  Zr  Zr36  1  0.53595000  0.03534000  0.73637000  1
  Zr  Zr37  1  0.58637000  0.99013000  0.81075000  1
  Zr  Zr38  1  0.71369000  0.94455000  0.76434000  1
  Zr  Zr39  1  0.03595000  0.53534000  0.23637000  1
  Zr  Zr40  1  0.08637000  0.49013000  0.31075000  1
  Zr  Zr41  1  0.21369000  0.44455000  0.26434000  1
  Zr  Zr42  1  0.53595000  0.96466000  0.26363000  1
  Zr  Zr43  1  0.58637000  0.00987000  0.18925000  1
  Zr  Zr44  1  0.71369000  0.05545000  0.23566000  1
  Zr  Zr45  1  0.03595000  0.46466000  0.76363000  1
  Zr  Zr46  1  0.08637000  0.50987000  0.68925000  1
  Zr  Zr47  1  0.21369000  0.55545000  0.73566000  1
  H  H48  1  0.70726000  0.35329000  0.40648000  1
  H  H49  1  0.84258000  0.40941000  0.46293000  1
  H  H50  1  0.79802000  0.45935000  0.43857000  1
  H  H51  1  0.66269000  0.40322000  0.38212000  1
  H  H52  1  0.53605000  0.54515000  0.33567000  1
  H  H53  1  0.43150000  0.54359000  0.30456000  1
  H  H54  1  0.42900000  0.44055000  0.31170000  1
  H  H55  1  0.53355000  0.44211000  0.34281000  1
  H  H56  1  0.80201000  0.53906000  0.43005000  1
  H  H57  1  0.84885000  0.59110000  0.44821000  1
  H  H58  1  0.70596000  0.64155000  0.39082000  1
  H  H59  1  0.65912000  0.58952000  0.37266000  1
  H  H60  1  0.97922000  0.24478000  0.67053000  1
  H  H61  1  0.98167000  0.24544000  0.72970000  1
  H  H62  1  0.15846000  0.29936000  0.82896000  1
  H  H63  1  0.05448000  0.28883000  0.79917000  1
  H  H64  1  0.97426000  0.24137000  0.88221000  1
  H  H65  1  0.07824000  0.25190000  0.91200000  1
  H  H66  1  0.83131000  0.25947000  0.34625000  1
  H  H67  1  0.91371000  0.26367000  0.34625000  1
  H  H68  1  0.87998000  0.22686000  0.34625000  1
  H  H69  1  0.20726000  0.85329000  0.90648000  1
  H  H70  1  0.34258000  0.90941000  0.96293000  1
  H  H71  1  0.29802000  0.95935000  0.93857000  1
  H  H72  1  0.16269000  0.90322000  0.88212000  1
  H  H73  1  0.03605000  0.04515000  0.83567000  1
  H  H74  1  0.93150000  0.04359000  0.80456000  1
  H  H75  1  0.92900000  0.94055000  0.81170000  1
  H  H76  1  0.03355000  0.94211000  0.84281000  1
  H  H77  1  0.30201000  0.03906000  0.93005000  1
  H  H78  1  0.34885000  0.09110000  0.94821000  1
  H  H79  1  0.20596000  0.14155000  0.89082000  1
  H  H80  1  0.15912000  0.08952000  0.87266000  1
  H  H81  1  0.47922000  0.74478000  0.17053000  1
  H  H82  1  0.48167000  0.74544000  0.22970000  1
  H  H83  1  0.65846000  0.79936000  0.32896000  1
  H  H84  1  0.55448000  0.78883000  0.29917000  1
  H  H85  1  0.47426000  0.74137000  0.38221000  1
  H  H86  1  0.57824000  0.75190000  0.41200000  1
  H  H87  1  0.70726000  0.64671000  0.59352000  1
  H  H88  1  0.84258000  0.59059000  0.53707000  1
  H  H89  1  0.79802000  0.54065000  0.56143000  1
  H  H90  1  0.66269000  0.59678000  0.61788000  1
  H  H91  1  0.53605000  0.45485000  0.66433000  1
  H  H92  1  0.43150000  0.45641000  0.69544000  1
  H  H93  1  0.42900000  0.55945000  0.68830000  1
  H  H94  1  0.53355000  0.55789000  0.65719000  1
  H  H95  1  0.80201000  0.46094000  0.56995000  1
  H  H96  1  0.84885000  0.40890000  0.55179000  1
  H  H97  1  0.70596000  0.35845000  0.60918000  1
  H  H98  1  0.65912000  0.41048000  0.62734000  1
  H  H99  1  0.97922000  0.75522000  0.32947000  1
  H  H100  1  0.98167000  0.75456000  0.27030000  1
  H  H101  1  0.01730000  0.70366000  0.07334000  1
  H  H102  1  0.92392000  0.71381000  0.11063000  1
  H  H103  1  0.05565000  0.76243000  0.17544000  1
  H  H104  1  0.14903000  0.75228000  0.13815000  1
  H  H105  1  0.20726000  0.14671000  0.09352000  1
  H  H106  1  0.34258000  0.09059000  0.03707000  1
  H  H107  1  0.29802000  0.04065000  0.06143000  1
  H  H108  1  0.16269000  0.09678000  0.11788000  1
  H  H109  1  0.03605000  0.95485000  0.16433000  1
  H  H110  1  0.93150000  0.95641000  0.19544000  1
  H  H111  1  0.92900000  0.05945000  0.18830000  1
  H  H112  1  0.03355000  0.05789000  0.15719000  1
  H  H113  1  0.30201000  0.96094000  0.06995000  1
  H  H114  1  0.34885000  0.90890000  0.05179000  1
  H  H115  1  0.20596000  0.85845000  0.10918000  1
  H  H116  1  0.15912000  0.91048000  0.12734000  1
  H  H117  1  0.47922000  0.25522000  0.82947000  1
  H  H118  1  0.48167000  0.25456000  0.77030000  1
  H  H119  1  0.65846000  0.20064000  0.67104000  1
  H  H120  1  0.55448000  0.21117000  0.70083000  1
  H  H121  1  0.47426000  0.25863000  0.61779000  1
  H  H122  1  0.57824000  0.24810000  0.58800000  1
  H  H123  1  0.29274000  0.40648000  0.64671000  1
  H  H124  1  0.15742000  0.46293000  0.59059000  1
  H  H125  1  0.20198000  0.43857000  0.54065000  1
  H  H126  1  0.33731000  0.38212000  0.59678000  1
  H  H127  1  0.46395000  0.33567000  0.45485000  1
  H  H128  1  0.56850000  0.30456000  0.45641000  1
  H  H129  1  0.57100000  0.31170000  0.55945000  1
  H  H130  1  0.46645000  0.34281000  0.55789000  1
  H  H131  1  0.19799000  0.43005000  0.46094000  1
  H  H132  1  0.15115000  0.44821000  0.40890000  1
  H  H133  1  0.29404000  0.39082000  0.35845000  1
  H  H134  1  0.34088000  0.37266000  0.41048000  1
  H  H135  1  0.02078000  0.67053000  0.75522000  1
  H  H136  1  0.01833000  0.72970000  0.75456000  1
  H  H137  1  0.98270000  0.92666000  0.70366000  1
  H  H138  1  0.07608000  0.88937000  0.71381000  1
  H  H139  1  0.94435000  0.82456000  0.76243000  1
  H  H140  1  0.85097000  0.86185000  0.75228000  1
  H  H141  1  0.16869000  0.34625000  0.74053000  1
  H  H142  1  0.08629000  0.34625000  0.73633000  1
  H  H143  1  0.12002000  0.34625000  0.77314000  1
  H  H144  1  0.79274000  0.90648000  0.14671000  1
  H  H145  1  0.65742000  0.96293000  0.09059000  1
  H  H146  1  0.70198000  0.93857000  0.04065000  1
  H  H147  1  0.83731000  0.88212000  0.09678000  1
  H  H148  1  0.96395000  0.83567000  0.95485000  1
  H  H149  1  0.06850000  0.80456000  0.95641000  1
  H  H150  1  0.07100000  0.81170000  0.05945000  1
  H  H151  1  0.96645000  0.84281000  0.05789000  1
  H  H152  1  0.69799000  0.93005000  0.96094000  1
  H  H153  1  0.65115000  0.94821000  0.90890000  1
  H  H154  1  0.79404000  0.89082000  0.85845000  1
  H  H155  1  0.84088000  0.87266000  0.91048000  1
  H  H156  1  0.52078000  0.17053000  0.25522000  1
  H  H157  1  0.51833000  0.22970000  0.25456000  1
  H  H158  1  0.34154000  0.32896000  0.20064000  1
  H  H159  1  0.44552000  0.29917000  0.21117000  1
  H  H160  1  0.52574000  0.38221000  0.25863000  1
  H  H161  1  0.42176000  0.41200000  0.24810000  1
  H  H162  1  0.29274000  0.59352000  0.35329000  1
  H  H163  1  0.15742000  0.53707000  0.40941000  1
  H  H164  1  0.20198000  0.56143000  0.45935000  1
  H  H165  1  0.33731000  0.61788000  0.40322000  1
  H  H166  1  0.46395000  0.66433000  0.54515000  1
  H  H167  1  0.56850000  0.69544000  0.54359000  1
  H  H168  1  0.57100000  0.68830000  0.44055000  1
  H  H169  1  0.46645000  0.65719000  0.44211000  1
  H  H170  1  0.19799000  0.56995000  0.53906000  1
  H  H171  1  0.15115000  0.55179000  0.59110000  1
  H  H172  1  0.29404000  0.60918000  0.64155000  1
  H  H173  1  0.34088000  0.62734000  0.58952000  1
  H  H174  1  0.02078000  0.32947000  0.24478000  1
  H  H175  1  0.01833000  0.27030000  0.24544000  1
  H  H176  1  0.84154000  0.17104000  0.29936000  1
  H  H177  1  0.94552000  0.20083000  0.28883000  1
  H  H178  1  0.02574000  0.11779000  0.24137000  1
  H  H179  1  0.92176000  0.08800000  0.25190000  1
  H  H180  1  0.79274000  0.09352000  0.85329000  1
  H  H181  1  0.65742000  0.03707000  0.90941000  1
  H  H182  1  0.70198000  0.06143000  0.95935000  1
  H  H183  1  0.83731000  0.11788000  0.90322000  1
  H  H184  1  0.96395000  0.16433000  0.04515000  1
  H  H185  1  0.06850000  0.19544000  0.04359000  1
  H  H186  1  0.07100000  0.18830000  0.94055000  1
  H  H187  1  0.96645000  0.15719000  0.94211000  1
  H  H188  1  0.69799000  0.06995000  0.03906000  1
  H  H189  1  0.65115000  0.05179000  0.09110000  1
  H  H190  1  0.79404000  0.10918000  0.14155000  1
  H  H191  1  0.84088000  0.12734000  0.08952000  1
  H  H192  1  0.52078000  0.82947000  0.74478000  1
  H  H193  1  0.51833000  0.77030000  0.74544000  1
  H  H194  1  0.48270000  0.57334000  0.79634000  1
  H  H195  1  0.57608000  0.61063000  0.78619000  1
  H  H196  1  0.44435000  0.67544000  0.73757000  1
  H  H197  1  0.35097000  0.63815000  0.74772000  1
  H  H198  1  0.66869000  0.15375000  0.75947000  1
  H  H199  1  0.58629000  0.15375000  0.76367000  1
  H  H200  1  0.62002000  0.15375000  0.72686000  1
  H  H201  1  0.04274000  0.14671000  0.40648000  1
  H  H202  1  0.90742000  0.09059000  0.46293000  1
  H  H203  1  0.95198000  0.04065000  0.43857000  1
  H  H204  1  0.08731000  0.09678000  0.38212000  1
  H  H205  1  0.21395000  0.95485000  0.33567000  1
  H  H206  1  0.31850000  0.95641000  0.30456000  1
  H  H207  1  0.32100000  0.05945000  0.31170000  1
  H  H208  1  0.21645000  0.05789000  0.34281000  1
  H  H209  1  0.94799000  0.96094000  0.43005000  1
  H  H210  1  0.90115000  0.90890000  0.44821000  1
  H  H211  1  0.04404000  0.85845000  0.39082000  1
  H  H212  1  0.09088000  0.91048000  0.37266000  1
  H  H213  1  0.77078000  0.25522000  0.67053000  1
  H  H214  1  0.76833000  0.25456000  0.72970000  1
  H  H215  1  0.73270000  0.20366000  0.92666000  1
  H  H216  1  0.82608000  0.21381000  0.88937000  1
  H  H217  1  0.69435000  0.26243000  0.82456000  1
  H  H218  1  0.60097000  0.25228000  0.86185000  1
  H  H219  1  0.54274000  0.64671000  0.90648000  1
  H  H220  1  0.40742000  0.59059000  0.96293000  1
  H  H221  1  0.45198000  0.54065000  0.93857000  1
  H  H222  1  0.58731000  0.59678000  0.88212000  1
  H  H223  1  0.71395000  0.45485000  0.83567000  1
  H  H224  1  0.81850000  0.45641000  0.80456000  1
  H  H225  1  0.82100000  0.55945000  0.81170000  1
  H  H226  1  0.71645000  0.55789000  0.84281000  1
  H  H227  1  0.44799000  0.46094000  0.93005000  1
  H  H228  1  0.40115000  0.40890000  0.94821000  1
  H  H229  1  0.54404000  0.35845000  0.89082000  1
  H  H230  1  0.59088000  0.41048000  0.87266000  1
  H  H231  1  0.27078000  0.75522000  0.17053000  1
  H  H232  1  0.26833000  0.75456000  0.22970000  1
  H  H233  1  0.23270000  0.70366000  0.42666000  1
  H  H234  1  0.32608000  0.71381000  0.38937000  1
  H  H235  1  0.19435000  0.76243000  0.32456000  1
  H  H236  1  0.10097000  0.75228000  0.36185000  1
  H  H237  1  0.41869000  0.74053000  0.84625000  1
  H  H238  1  0.33629000  0.73633000  0.84625000  1
  H  H239  1  0.37002000  0.77314000  0.84625000  1
  H  H240  1  0.04274000  0.85329000  0.59352000  1
  H  H241  1  0.90742000  0.90941000  0.53707000  1
  H  H242  1  0.95198000  0.95935000  0.56143000  1
  H  H243  1  0.08731000  0.90322000  0.61788000  1
  H  H244  1  0.21395000  0.04515000  0.66433000  1
  H  H245  1  0.31850000  0.04359000  0.69544000  1
  H  H246  1  0.32100000  0.94055000  0.68830000  1
  H  H247  1  0.21645000  0.94211000  0.65719000  1
  H  H248  1  0.94799000  0.03906000  0.56995000  1
  H  H249  1  0.90115000  0.09110000  0.55179000  1
  H  H250  1  0.04404000  0.14155000  0.60918000  1
  H  H251  1  0.09088000  0.08952000  0.62734000  1
  H  H252  1  0.77078000  0.74478000  0.32947000  1
  H  H253  1  0.76833000  0.74544000  0.27030000  1
  H  H254  1  0.59154000  0.79936000  0.17104000  1
  H  H255  1  0.69552000  0.78883000  0.20083000  1
  H  H256  1  0.77574000  0.74137000  0.11779000  1
  H  H257  1  0.67176000  0.75190000  0.08800000  1
  H  H258  1  0.91869000  0.75947000  0.65375000  1
  H  H259  1  0.83629000  0.76367000  0.65375000  1
  H  H260  1  0.87002000  0.72686000  0.65375000  1
  H  H261  1  0.54274000  0.35329000  0.09352000  1
  H  H262  1  0.40742000  0.40941000  0.03707000  1
  H  H263  1  0.45198000  0.45935000  0.06143000  1
  H  H264  1  0.58731000  0.40322000  0.11788000  1
  H  H265  1  0.71395000  0.54515000  0.16433000  1
  H  H266  1  0.81850000  0.54359000  0.19544000  1
  H  H267  1  0.82100000  0.44055000  0.18830000  1
  H  H268  1  0.71645000  0.44211000  0.15719000  1
  H  H269  1  0.44799000  0.53906000  0.06995000  1
  H  H270  1  0.40115000  0.59110000  0.05179000  1
  H  H271  1  0.54404000  0.64155000  0.10918000  1
  H  H272  1  0.59088000  0.58952000  0.12734000  1
  H  H273  1  0.27078000  0.24478000  0.82947000  1
  H  H274  1  0.26833000  0.24544000  0.77030000  1
  H  H275  1  0.23270000  0.29634000  0.57334000  1
  H  H276  1  0.32608000  0.28619000  0.61063000  1
  H  H277  1  0.19435000  0.23757000  0.67544000  1
  H  H278  1  0.10097000  0.24772000  0.63815000  1
  H  H279  1  0.41869000  0.25947000  0.15375000  1
  H  H280  1  0.33629000  0.26367000  0.15375000  1
  H  H281  1  0.37002000  0.22686000  0.15375000  1
  H  H282  1  0.45726000  0.09352000  0.64671000  1
  H  H283  1  0.59258000  0.03707000  0.59059000  1
  H  H284  1  0.54802000  0.06143000  0.54065000  1
  H  H285  1  0.41269000  0.11788000  0.59678000  1
  H  H286  1  0.28605000  0.16433000  0.45485000  1
  H  H287  1  0.18150000  0.19544000  0.45641000  1
  H  H288  1  0.17900000  0.18830000  0.55945000  1
  H  H289  1  0.28355000  0.15719000  0.55789000  1
  H  H290  1  0.55201000  0.06995000  0.46094000  1
  H  H291  1  0.59885000  0.05179000  0.40890000  1
  H  H292  1  0.45596000  0.10918000  0.35845000  1
  H  H293  1  0.40912000  0.12734000  0.41048000  1
  H  H294  1  0.72922000  0.82947000  0.75522000  1
  H  H295  1  0.73167000  0.77030000  0.75456000  1
  H  H296  1  0.90846000  0.67104000  0.70064000  1
  H  H297  1  0.80448000  0.70083000  0.71117000  1
  H  H298  1  0.72426000  0.61779000  0.75863000  1
  H  H299  1  0.82824000  0.58800000  0.74810000  1
  H  H300  1  0.95726000  0.59352000  0.14671000  1
  H  H301  1  0.09258000  0.53707000  0.09059000  1
  H  H302  1  0.04802000  0.56143000  0.04065000  1
  H  H303  1  0.91269000  0.61788000  0.09678000  1
  H  H304  1  0.78605000  0.66433000  0.95485000  1
  H  H305  1  0.68150000  0.69544000  0.95641000  1
  H  H306  1  0.67900000  0.68830000  0.05945000  1
  H  H307  1  0.78355000  0.65719000  0.05789000  1
  H  H308  1  0.05201000  0.56995000  0.96094000  1
  H  H309  1  0.09885000  0.55179000  0.90890000  1
  H  H310  1  0.95596000  0.60918000  0.85845000  1
  H  H311  1  0.90912000  0.62734000  0.91048000  1
  H  H312  1  0.22922000  0.32947000  0.25522000  1
  H  H313  1  0.23167000  0.27030000  0.25456000  1
  H  H314  1  0.26730000  0.07334000  0.20366000  1
  H  H315  1  0.17392000  0.11063000  0.21381000  1
  H  H316  1  0.30565000  0.17544000  0.26243000  1
  H  H317  1  0.39903000  0.13815000  0.25228000  1
  H  H318  1  0.08131000  0.65375000  0.24053000  1
  H  H319  1  0.16371000  0.65375000  0.23633000  1
  H  H320  1  0.12998000  0.65375000  0.27314000  1
  H  H321  1  0.45726000  0.90648000  0.35329000  1
  H  H322  1  0.59258000  0.96293000  0.40941000  1
  H  H323  1  0.54802000  0.93857000  0.45935000  1
  H  H324  1  0.41269000  0.88212000  0.40322000  1
  H  H325  1  0.28605000  0.83567000  0.54515000  1
  H  H326  1  0.18150000  0.80456000  0.54359000  1
  H  H327  1  0.17900000  0.81170000  0.44055000  1
  H  H328  1  0.28355000  0.84281000  0.44211000  1
  H  H329  1  0.55201000  0.93005000  0.53906000  1
  H  H330  1  0.59885000  0.94821000  0.59110000  1
  H  H331  1  0.45596000  0.89082000  0.64155000  1
  H  H332  1  0.40912000  0.87266000  0.58952000  1
  H  H333  1  0.72922000  0.17053000  0.24478000  1
  H  H334  1  0.73167000  0.22970000  0.24544000  1
  H  H335  1  0.76730000  0.42666000  0.29634000  1
  H  H336  1  0.67392000  0.38937000  0.28619000  1
  H  H337  1  0.80565000  0.32456000  0.23757000  1
  H  H338  1  0.89903000  0.36185000  0.24772000  1
  H  H339  1  0.58131000  0.84625000  0.25947000  1
  H  H340  1  0.66371000  0.84625000  0.26367000  1
  H  H341  1  0.62998000  0.84625000  0.22686000  1
  H  H342  1  0.95726000  0.40648000  0.85329000  1
  H  H343  1  0.09258000  0.46293000  0.90941000  1
  H  H344  1  0.04802000  0.43857000  0.95935000  1
  H  H345  1  0.91269000  0.38212000  0.90322000  1
  H  H346  1  0.78605000  0.33567000  0.04515000  1
  H  H347  1  0.68150000  0.30456000  0.04359000  1
  H  H348  1  0.67900000  0.31170000  0.94055000  1
  H  H349  1  0.78355000  0.34281000  0.94211000  1
  H  H350  1  0.05201000  0.43005000  0.03906000  1
  H  H351  1  0.09885000  0.44821000  0.09110000  1
  H  H352  1  0.95596000  0.39082000  0.14155000  1
  H  H353  1  0.90912000  0.37266000  0.08952000  1
  H  H354  1  0.22922000  0.67053000  0.74478000  1
  H  H355  1  0.23167000  0.72970000  0.74544000  1
  H  H356  1  0.40846000  0.82896000  0.79936000  1
  H  H357  1  0.30448000  0.79917000  0.78883000  1
  H  H358  1  0.22426000  0.88221000  0.74137000  1
  H  H359  1  0.32824000  0.91200000  0.75190000  1
  C  C360  1  0.80870000  0.34380000  0.45270000  1
  C  C361  1  0.72550000  0.37455000  0.41290000  1
  C  C362  1  0.77930000  0.37640000  0.43710000  1
  C  C363  1  0.80650000  0.40817000  0.44670000  1
  C  C364  1  0.77980000  0.43809000  0.43210000  1
  C  C365  1  0.72590000  0.43623000  0.40790000  1
  C  C366  1  0.69870000  0.40446000  0.39830000  1
  C  C367  1  0.69330000  0.46810000  0.39460000  1
  C  C368  1  0.61280000  0.49440000  0.36100000  1
  C  C369  1  0.69460000  0.52580000  0.38940000  1
  C  C370  1  0.51460000  0.52418000  0.33090000  1
  C  C371  1  0.45200000  0.52325000  0.31220000  1
  C  C372  1  0.41990000  0.49192000  0.30500000  1
  C  C373  1  0.45050000  0.46152000  0.31650000  1
  C  C374  1  0.51310000  0.46245000  0.33510000  1
  C  C375  1  0.54520000  0.49378000  0.34230000  1
  C  C376  1  0.34890000  0.49100000  0.28810000  1
  C  C377  1  0.72590000  0.55913000  0.39960000  1
  C  C378  1  0.78280000  0.55960000  0.42220000  1
  C  C379  1  0.81080000  0.59078000  0.43310000  1
  C  C380  1  0.78210000  0.62148000  0.42130000  1
  C  C381  1  0.72520000  0.62101000  0.39870000  1
  C  C382  1  0.69720000  0.58983000  0.38780000  1
  C  C383  1  0.80920000  0.65520000  0.43460000  1
  C  C384  1  0.93690000  0.24700000  0.68250000  1
  C  C385  1  0.93890000  0.24720000  0.71810000  1
  C  C386  1  0.93490000  0.25950000  0.82530000  1
  C  C387  1  0.19860000  0.28320000  0.89100000  1
  C  C388  1  0.12150000  0.28770000  0.83960000  1
  C  C389  1  0.05920000  0.28140000  0.82180000  1
  C  C390  1  0.00410000  0.26410000  0.83770000  1
  C  C391  1  0.01120000  0.25300000  0.87150000  1
  C  C392  1  0.07350000  0.25930000  0.88940000  1
  C  C393  1  0.12870000  0.27670000  0.87340000  1
  C  C394  1  0.30870000  0.84380000  0.95270000  1
  C  C395  1  0.22550000  0.87455000  0.91290000  1
  C  C396  1  0.27930000  0.87640000  0.93710000  1
  C  C397  1  0.30650000  0.90817000  0.94670000  1
  C  C398  1  0.27980000  0.93809000  0.93210000  1
  C  C399  1  0.22590000  0.93623000  0.90790000  1
  C  C400  1  0.19870000  0.90446000  0.89830000  1
  C  C401  1  0.19330000  0.96810000  0.89460000  1
  C  C402  1  0.11280000  0.99440000  0.86100000  1
  C  C403  1  0.19460000  0.02580000  0.88940000  1
  C  C404  1  0.01460000  0.02418000  0.83090000  1
  C  C405  1  0.95200000  0.02325000  0.81220000  1
  C  C406  1  0.91990000  0.99192000  0.80500000  1
  C  C407  1  0.95050000  0.96152000  0.81650000  1
  C  C408  1  0.01310000  0.96245000  0.83510000  1
  C  C409  1  0.04520000  0.99378000  0.84230000  1
  C  C410  1  0.84890000  0.99100000  0.78810000  1
  C  C411  1  0.22590000  0.05913000  0.89960000  1
  C  C412  1  0.28280000  0.05960000  0.92220000  1
  C  C413  1  0.31080000  0.09078000  0.93310000  1
  C  C414  1  0.28210000  0.12148000  0.92130000  1
  C  C415  1  0.22520000  0.12101000  0.89870000  1
  C  C416  1  0.19720000  0.08983000  0.88780000  1
  C  C417  1  0.30920000  0.15520000  0.93460000  1
  C  C418  1  0.43690000  0.74700000  0.18250000  1
  C  C419  1  0.43890000  0.74720000  0.21810000  1
  C  C420  1  0.43490000  0.75950000  0.32530000  1
  C  C421  1  0.69860000  0.78320000  0.39100000  1
  C  C422  1  0.62150000  0.78770000  0.33960000  1
  C  C423  1  0.55920000  0.78140000  0.32180000  1
  C  C424  1  0.50410000  0.76410000  0.33770000  1
  C  C425  1  0.51120000  0.75300000  0.37150000  1
  C  C426  1  0.57350000  0.75930000  0.38940000  1
  C  C427  1  0.62870000  0.77670000  0.37340000  1
  C  C428  1  0.80870000  0.65620000  0.54730000  1
  C  C429  1  0.72550000  0.62545000  0.58710000  1
  C  C430  1  0.77930000  0.62360000  0.56290000  1
  C  C431  1  0.80650000  0.59183000  0.55330000  1
  C  C432  1  0.77980000  0.56191000  0.56790000  1
  C  C433  1  0.72590000  0.56377000  0.59210000  1
  C  C434  1  0.69870000  0.59554000  0.60170000  1
  C  C435  1  0.69330000  0.53190000  0.60540000  1
  C  C436  1  0.61280000  0.50560000  0.63900000  1
  C  C437  1  0.69460000  0.47420000  0.61060000  1
  C  C438  1  0.51460000  0.47582000  0.66910000  1
  C  C439  1  0.45200000  0.47675000  0.68780000  1
  C  C440  1  0.41990000  0.50808000  0.69500000  1
  C  C441  1  0.45050000  0.53848000  0.68350000  1
  C  C442  1  0.51310000  0.53755000  0.66490000  1
  C  C443  1  0.54520000  0.50622000  0.65770000  1
  C  C444  1  0.34890000  0.50900000  0.71190000  1
  C  C445  1  0.72590000  0.44087000  0.60040000  1
  C  C446  1  0.78280000  0.44040000  0.57780000  1
  C  C447  1  0.81080000  0.40922000  0.56690000  1
  C  C448  1  0.78210000  0.37852000  0.57870000  1
  C  C449  1  0.72520000  0.37899000  0.60130000  1
  C  C450  1  0.69720000  0.41017000  0.61220000  1
  C  C451  1  0.80920000  0.34480000  0.56540000  1
  C  C452  1  0.93690000  0.75300000  0.31750000  1
  C  C453  1  0.93890000  0.75280000  0.28190000  1
  C  C454  1  0.93490000  0.74050000  0.17470000  1
  C  C455  1  0.14770000  0.72730000  0.07380000  1
  C  C456  1  0.02500000  0.71540000  0.09380000  1
  C  C457  1  0.96900000  0.72150000  0.11610000  1
  C  C458  1  0.98050000  0.73910000  0.14670000  1
  C  C459  1  0.04800000  0.75060000  0.15500000  1
  C  C460  1  0.10390000  0.74460000  0.13260000  1
  C  C461  1  0.09240000  0.72700000  0.10200000  1
  C  C462  1  0.30870000  0.15620000  0.04730000  1
  C  C463  1  0.22550000  0.12545000  0.08710000  1
  C  C464  1  0.27930000  0.12360000  0.06290000  1
  C  C465  1  0.30650000  0.09183000  0.05330000  1
  C  C466  1  0.27980000  0.06191000  0.06790000  1
  C  C467  1  0.22590000  0.06377000  0.09210000  1
  C  C468  1  0.19870000  0.09554000  0.10170000  1
  C  C469  1  0.19330000  0.03190000  0.10540000  1
  C  C470  1  0.11280000  0.00560000  0.13900000  1
  C  C471  1  0.19460000  0.97420000  0.11060000  1
  C  C472  1  0.01460000  0.97582000  0.16910000  1
  C  C473  1  0.95200000  0.97675000  0.18780000  1
  C  C474  1  0.91990000  0.00808000  0.19500000  1
  C  C475  1  0.95050000  0.03848000  0.18350000  1
  C  C476  1  0.01310000  0.03755000  0.16490000  1
  C  C477  1  0.04520000  0.00622000  0.15770000  1
  C  C478  1  0.84890000  0.00900000  0.21190000  1
  C  C479  1  0.22590000  0.94087000  0.10040000  1
  C  C480  1  0.28280000  0.94040000  0.07780000  1
  C  C481  1  0.31080000  0.90922000  0.06690000  1
  C  C482  1  0.28210000  0.87852000  0.07870000  1
  C  C483  1  0.22520000  0.87899000  0.10130000  1
  C  C484  1  0.19720000  0.91017000  0.11220000  1
  C  C485  1  0.30920000  0.84480000  0.06540000  1
  C  C486  1  0.43690000  0.25300000  0.81750000  1
  C  C487  1  0.43890000  0.25280000  0.78190000  1
  C  C488  1  0.43490000  0.24050000  0.67470000  1
  C  C489  1  0.69860000  0.21680000  0.60900000  1
  C  C490  1  0.62150000  0.21230000  0.66040000  1
  C  C491  1  0.55920000  0.21860000  0.67820000  1
  C  C492  1  0.50410000  0.23590000  0.66230000  1
  C  C493  1  0.51120000  0.24700000  0.62850000  1
  C  C494  1  0.57350000  0.24070000  0.61060000  1
  C  C495  1  0.62870000  0.22330000  0.62660000  1
  C  C496  1  0.19130000  0.45270000  0.65620000  1
  C  C497  1  0.27450000  0.41290000  0.62545000  1
  C  C498  1  0.22070000  0.43710000  0.62360000  1
  C  C499  1  0.19350000  0.44670000  0.59183000  1
  C  C500  1  0.22020000  0.43210000  0.56191000  1
  C  C501  1  0.27410000  0.40790000  0.56377000  1
  C  C502  1  0.30130000  0.39830000  0.59554000  1
  C  C503  1  0.30670000  0.39460000  0.53190000  1
  C  C504  1  0.38720000  0.36100000  0.50560000  1
  C  C505  1  0.30540000  0.38940000  0.47420000  1
  C  C506  1  0.48540000  0.33090000  0.47582000  1
  C  C507  1  0.54800000  0.31220000  0.47675000  1
  C  C508  1  0.58010000  0.30500000  0.50808000  1
  C  C509  1  0.54950000  0.31650000  0.53848000  1
  C  C510  1  0.48690000  0.33510000  0.53755000  1
  C  C511  1  0.45480000  0.34230000  0.50622000  1
  C  C512  1  0.65110000  0.28810000  0.50900000  1
  C  C513  1  0.27410000  0.39960000  0.44087000  1
  C  C514  1  0.21720000  0.42220000  0.44040000  1
  C  C515  1  0.18920000  0.43310000  0.40922000  1
  C  C516  1  0.21790000  0.42130000  0.37852000  1
  C  C517  1  0.27480000  0.39870000  0.37899000  1
  C  C518  1  0.30280000  0.38780000  0.41017000  1
  C  C519  1  0.19080000  0.43460000  0.34480000  1
  C  C520  1  0.06310000  0.68250000  0.75300000  1
  C  C521  1  0.06110000  0.71810000  0.75280000  1
  C  C522  1  0.06510000  0.82530000  0.74050000  1
  C  C523  1  0.85230000  0.92620000  0.72730000  1
  C  C524  1  0.97500000  0.90620000  0.71540000  1
  C  C525  1  0.03100000  0.88390000  0.72150000  1
  C  C526  1  0.01950000  0.85330000  0.73910000  1
  C  C527  1  0.95200000  0.84500000  0.75060000  1
  C  C528  1  0.89610000  0.86740000  0.74460000  1
  C  C529  1  0.90760000  0.89800000  0.72700000  1
  C  C530  1  0.69130000  0.95270000  0.15620000  1
  C  C531  1  0.77450000  0.91290000  0.12545000  1
  C  C532  1  0.72070000  0.93710000  0.12360000  1
  C  C533  1  0.69350000  0.94670000  0.09183000  1
  C  C534  1  0.72020000  0.93210000  0.06191000  1
  C  C535  1  0.77410000  0.90790000  0.06377000  1
  C  C536  1  0.80130000  0.89830000  0.09554000  1
  C  C537  1  0.80670000  0.89460000  0.03190000  1
  C  C538  1  0.88720000  0.86100000  0.00560000  1
  C  C539  1  0.80540000  0.88940000  0.97420000  1
  C  C540  1  0.98540000  0.83090000  0.97582000  1
  C  C541  1  0.04800000  0.81220000  0.97675000  1
  C  C542  1  0.08010000  0.80500000  0.00808000  1
  C  C543  1  0.04950000  0.81650000  0.03848000  1
  C  C544  1  0.98690000  0.83510000  0.03755000  1
  C  C545  1  0.95480000  0.84230000  0.00622000  1
  C  C546  1  0.15110000  0.78810000  0.00900000  1
  C  C547  1  0.77410000  0.89960000  0.94087000  1
  C  C548  1  0.71720000  0.92220000  0.94040000  1
  C  C549  1  0.68920000  0.93310000  0.90922000  1
  C  C550  1  0.71790000  0.92130000  0.87852000  1
  C  C551  1  0.77480000  0.89870000  0.87899000  1
  C  C552  1  0.80280000  0.88780000  0.91017000  1
  C  C553  1  0.69080000  0.93460000  0.84480000  1
  C  C554  1  0.56310000  0.18250000  0.25300000  1
  C  C555  1  0.56110000  0.21810000  0.25280000  1
  C  C556  1  0.56510000  0.32530000  0.24050000  1
  C  C557  1  0.30140000  0.39100000  0.21680000  1
  C  C558  1  0.37850000  0.33960000  0.21230000  1
  C  C559  1  0.44080000  0.32180000  0.21860000  1
  C  C560  1  0.49590000  0.33770000  0.23590000  1
  C  C561  1  0.48880000  0.37150000  0.24700000  1
  C  C562  1  0.42650000  0.38940000  0.24070000  1
  C  C563  1  0.37130000  0.37340000  0.22330000  1
  C  C564  1  0.19130000  0.54730000  0.34380000  1
  C  C565  1  0.27450000  0.58710000  0.37455000  1
  C  C566  1  0.22070000  0.56290000  0.37640000  1
  C  C567  1  0.19350000  0.55330000  0.40817000  1
  C  C568  1  0.22020000  0.56790000  0.43809000  1
  C  C569  1  0.27410000  0.59210000  0.43623000  1
  C  C570  1  0.30130000  0.60170000  0.40446000  1
  C  C571  1  0.30670000  0.60540000  0.46810000  1
  C  C572  1  0.38720000  0.63900000  0.49440000  1
  C  C573  1  0.30540000  0.61060000  0.52580000  1
  C  C574  1  0.48540000  0.66910000  0.52418000  1
  C  C575  1  0.54800000  0.68780000  0.52325000  1
  C  C576  1  0.58010000  0.69500000  0.49192000  1
  C  C577  1  0.54950000  0.68350000  0.46152000  1
  C  C578  1  0.48690000  0.66490000  0.46245000  1
  C  C579  1  0.45480000  0.65770000  0.49378000  1
  C  C580  1  0.65110000  0.71190000  0.49100000  1
  C  C581  1  0.27410000  0.60040000  0.55913000  1
  C  C582  1  0.21720000  0.57780000  0.55960000  1
  C  C583  1  0.18920000  0.56690000  0.59078000  1
  C  C584  1  0.21790000  0.57870000  0.62148000  1
  C  C585  1  0.27480000  0.60130000  0.62101000  1
  C  C586  1  0.30280000  0.61220000  0.58983000  1
  C  C587  1  0.19080000  0.56540000  0.65520000  1
  C  C588  1  0.06310000  0.31750000  0.24700000  1
  C  C589  1  0.06110000  0.28190000  0.24720000  1
  C  C590  1  0.06510000  0.17470000  0.25950000  1
  C  C591  1  0.80140000  0.10900000  0.28320000  1
  C  C592  1  0.87850000  0.16040000  0.28770000  1
  C  C593  1  0.94080000  0.17820000  0.28140000  1
  C  C594  1  0.99590000  0.16230000  0.26410000  1
  C  C595  1  0.98880000  0.12850000  0.25300000  1
  C  C596  1  0.92650000  0.11060000  0.25930000  1
  C  C597  1  0.87130000  0.12660000  0.27670000  1
  C  C598  1  0.69130000  0.04730000  0.84380000  1
  C  C599  1  0.77450000  0.08710000  0.87455000  1
  C  C600  1  0.72070000  0.06290000  0.87640000  1
  C  C601  1  0.69350000  0.05330000  0.90817000  1
  C  C602  1  0.72020000  0.06790000  0.93809000  1
  C  C603  1  0.77410000  0.09210000  0.93623000  1
  C  C604  1  0.80130000  0.10170000  0.90446000  1
  C  C605  1  0.80670000  0.10540000  0.96810000  1
  C  C606  1  0.88720000  0.13900000  0.99440000  1
  C  C607  1  0.80540000  0.11060000  0.02580000  1
  C  C608  1  0.98540000  0.16910000  0.02418000  1
  C  C609  1  0.04800000  0.18780000  0.02325000  1
  C  C610  1  0.08010000  0.19500000  0.99192000  1
  C  C611  1  0.04950000  0.18350000  0.96152000  1
  C  C612  1  0.98690000  0.16490000  0.96245000  1
  C  C613  1  0.95480000  0.15770000  0.99378000  1
  C  C614  1  0.15110000  0.21190000  0.99100000  1
  C  C615  1  0.77410000  0.10040000  0.05913000  1
  C  C616  1  0.71720000  0.07780000  0.05960000  1
  C  C617  1  0.68920000  0.06690000  0.09078000  1
  C  C618  1  0.71790000  0.07870000  0.12148000  1
  C  C619  1  0.77480000  0.10130000  0.12101000  1
  C  C620  1  0.80280000  0.11220000  0.08983000  1
  C  C621  1  0.69080000  0.06540000  0.15520000  1
  C  C622  1  0.56310000  0.81750000  0.74700000  1
  C  C623  1  0.56110000  0.78190000  0.74720000  1
  C  C624  1  0.56510000  0.67470000  0.75950000  1
  C  C625  1  0.35230000  0.57380000  0.77270000  1
  C  C626  1  0.47500000  0.59380000  0.78460000  1
  C  C627  1  0.53100000  0.61610000  0.77850000  1
  C  C628  1  0.51950000  0.64670000  0.76090000  1
  C  C629  1  0.45200000  0.65500000  0.74940000  1
  C  C630  1  0.39610000  0.63260000  0.75540000  1
  C  C631  1  0.40760000  0.60200000  0.77300000  1
  C  C632  1  0.94130000  0.15620000  0.45270000  1
  C  C633  1  0.02450000  0.12545000  0.41290000  1
  C  C634  1  0.97070000  0.12360000  0.43710000  1
  C  C635  1  0.94350000  0.09183000  0.44670000  1
  C  C636  1  0.97020000  0.06191000  0.43210000  1
  C  C637  1  0.02410000  0.06377000  0.40790000  1
  C  C638  1  0.05130000  0.09554000  0.39830000  1
  C  C639  1  0.05670000  0.03190000  0.39460000  1
  C  C640  1  0.13720000  0.00560000  0.36100000  1
  C  C641  1  0.05540000  0.97420000  0.38940000  1
  C  C642  1  0.23540000  0.97582000  0.33090000  1
  C  C643  1  0.29800000  0.97675000  0.31220000  1
  C  C644  1  0.33010000  0.00808000  0.30500000  1
  C  C645  1  0.29950000  0.03848000  0.31650000  1
  C  C646  1  0.23690000  0.03755000  0.33510000  1
  C  C647  1  0.20480000  0.00622000  0.34230000  1
  C  C648  1  0.40110000  0.00900000  0.28810000  1
  C  C649  1  0.02410000  0.94087000  0.39960000  1
  C  C650  1  0.96720000  0.94040000  0.42220000  1
  C  C651  1  0.93920000  0.90922000  0.43310000  1
  C  C652  1  0.96790000  0.87852000  0.42130000  1
  C  C653  1  0.02480000  0.87899000  0.39870000  1
  C  C654  1  0.05280000  0.91017000  0.38780000  1
  C  C655  1  0.94080000  0.84480000  0.43460000  1
  C  C656  1  0.81310000  0.25300000  0.68250000  1
  C  C657  1  0.81110000  0.25280000  0.71810000  1
  C  C658  1  0.81510000  0.24050000  0.82530000  1
  C  C659  1  0.60230000  0.22730000  0.92620000  1
  C  C660  1  0.72500000  0.21540000  0.90620000  1
  C  C661  1  0.78100000  0.22150000  0.88390000  1
  C  C662  1  0.76950000  0.23910000  0.85330000  1
  C  C663  1  0.70200000  0.25060000  0.84500000  1
  C  C664  1  0.64610000  0.24460000  0.86740000  1
  C  C665  1  0.65760000  0.22700000  0.89800000  1
  C  C666  1  0.44130000  0.65620000  0.95270000  1
  C  C667  1  0.52450000  0.62545000  0.91290000  1
  C  C668  1  0.47070000  0.62360000  0.93710000  1
  C  C669  1  0.44350000  0.59183000  0.94670000  1
  C  C670  1  0.47020000  0.56191000  0.93210000  1
  C  C671  1  0.52410000  0.56377000  0.90790000  1
  C  C672  1  0.55130000  0.59554000  0.89830000  1
  C  C673  1  0.55670000  0.53190000  0.89460000  1
  C  C674  1  0.63720000  0.50560000  0.86100000  1
  C  C675  1  0.55540000  0.47420000  0.88940000  1
  C  C676  1  0.73540000  0.47582000  0.83090000  1
  C  C677  1  0.79800000  0.47675000  0.81220000  1
  C  C678  1  0.83010000  0.50808000  0.80500000  1
  C  C679  1  0.79950000  0.53848000  0.81650000  1
  C  C680  1  0.73690000  0.53755000  0.83510000  1
  C  C681  1  0.70480000  0.50622000  0.84230000  1
  C  C682  1  0.90110000  0.50900000  0.78810000  1
  C  C683  1  0.52410000  0.44087000  0.89960000  1
  C  C684  1  0.46720000  0.44040000  0.92220000  1
  C  C685  1  0.43920000  0.40922000  0.93310000  1
  C  C686  1  0.46790000  0.37852000  0.92130000  1
  C  C687  1  0.52480000  0.37899000  0.89870000  1
  C  C688  1  0.55280000  0.41017000  0.88780000  1
  C  C689  1  0.44080000  0.34480000  0.93460000  1
  C  C690  1  0.31310000  0.75300000  0.18250000  1
  C  C691  1  0.31110000  0.75280000  0.21810000  1
  C  C692  1  0.31510000  0.74050000  0.32530000  1
  C  C693  1  0.10230000  0.72730000  0.42620000  1
  C  C694  1  0.22500000  0.71540000  0.40620000  1
  C  C695  1  0.28100000  0.72150000  0.38390000  1
  C  C696  1  0.26950000  0.73910000  0.35330000  1
  C  C697  1  0.20200000  0.75060000  0.34500000  1
  C  C698  1  0.14610000  0.74460000  0.36740000  1
  C  C699  1  0.15760000  0.72700000  0.39800000  1
  C  C700  1  0.94130000  0.84380000  0.54730000  1
  C  C701  1  0.02450000  0.87455000  0.58710000  1
  C  C702  1  0.97070000  0.87640000  0.56290000  1
  C  C703  1  0.94350000  0.90817000  0.55330000  1
  C  C704  1  0.97020000  0.93809000  0.56790000  1
  C  C705  1  0.02410000  0.93623000  0.59210000  1
  C  C706  1  0.05130000  0.90446000  0.60170000  1
  C  C707  1  0.05670000  0.96810000  0.60540000  1
  C  C708  1  0.13720000  0.99440000  0.63900000  1
  C  C709  1  0.05540000  0.02580000  0.61060000  1
  C  C710  1  0.23540000  0.02418000  0.66910000  1
  C  C711  1  0.29800000  0.02325000  0.68780000  1
  C  C712  1  0.33010000  0.99192000  0.69500000  1
  C  C713  1  0.29950000  0.96152000  0.68350000  1
  C  C714  1  0.23690000  0.96245000  0.66490000  1
  C  C715  1  0.20480000  0.99378000  0.65770000  1
  C  C716  1  0.40110000  0.99100000  0.71190000  1
  C  C717  1  0.02410000  0.05913000  0.60040000  1
  C  C718  1  0.96720000  0.05960000  0.57780000  1
  C  C719  1  0.93920000  0.09078000  0.56690000  1
  C  C720  1  0.96790000  0.12148000  0.57870000  1
  C  C721  1  0.02480000  0.12101000  0.60130000  1
  C  C722  1  0.05280000  0.08983000  0.61220000  1
  C  C723  1  0.94080000  0.15520000  0.56540000  1
  C  C724  1  0.81310000  0.74700000  0.31750000  1
  C  C725  1  0.81110000  0.74720000  0.28190000  1
  C  C726  1  0.81510000  0.75950000  0.17470000  1
  C  C727  1  0.55140000  0.78320000  0.10900000  1
  C  C728  1  0.62850000  0.78770000  0.16040000  1
  C  C729  1  0.69080000  0.78140000  0.17820000  1
  C  C730  1  0.74590000  0.76410000  0.16230000  1
  C  C731  1  0.73880000  0.75300000  0.12850000  1
  C  C732  1  0.67650000  0.75930000  0.11060000  1
  C  C733  1  0.62130000  0.77670000  0.12660000  1
  C  C734  1  0.44130000  0.34380000  0.04730000  1
  C  C735  1  0.52450000  0.37455000  0.08710000  1
  C  C736  1  0.47070000  0.37640000  0.06290000  1
  C  C737  1  0.44350000  0.40817000  0.05330000  1
  C  C738  1  0.47020000  0.43809000  0.06790000  1
  C  C739  1  0.52410000  0.43623000  0.09210000  1
  C  C740  1  0.55130000  0.40446000  0.10170000  1
  C  C741  1  0.55670000  0.46810000  0.10540000  1
  C  C742  1  0.63720000  0.49440000  0.13900000  1
  C  C743  1  0.55540000  0.52580000  0.11060000  1
  C  C744  1  0.73540000  0.52418000  0.16910000  1
  C  C745  1  0.79800000  0.52325000  0.18780000  1
  C  C746  1  0.83010000  0.49192000  0.19500000  1
  C  C747  1  0.79950000  0.46152000  0.18350000  1
  C  C748  1  0.73690000  0.46245000  0.16490000  1
  C  C749  1  0.70480000  0.49378000  0.15770000  1
  C  C750  1  0.90110000  0.49100000  0.21190000  1
  C  C751  1  0.52410000  0.55913000  0.10040000  1
  C  C752  1  0.46720000  0.55960000  0.07780000  1
  C  C753  1  0.43920000  0.59078000  0.06690000  1
  C  C754  1  0.46790000  0.62148000  0.07870000  1
  C  C755  1  0.52480000  0.62101000  0.10130000  1
  C  C756  1  0.55280000  0.58983000  0.11220000  1
  C  C757  1  0.44080000  0.65520000  0.06540000  1
  C  C758  1  0.31310000  0.24700000  0.81750000  1
  C  C759  1  0.31110000  0.24720000  0.78190000  1
  C  C760  1  0.31510000  0.25950000  0.67470000  1
  C  C761  1  0.10230000  0.27270000  0.57380000  1
  C  C762  1  0.22500000  0.28460000  0.59380000  1
  C  C763  1  0.28100000  0.27850000  0.61610000  1
  C  C764  1  0.26950000  0.26090000  0.64670000  1
  C  C765  1  0.20200000  0.24940000  0.65500000  1
  C  C766  1  0.14610000  0.25540000  0.63260000  1
  C  C767  1  0.15760000  0.27300000  0.60200000  1
  C  C768  1  0.55870000  0.04730000  0.65620000  1
  C  C769  1  0.47550000  0.08710000  0.62545000  1
  C  C770  1  0.52930000  0.06290000  0.62360000  1
  C  C771  1  0.55650000  0.05330000  0.59183000  1
  C  C772  1  0.52980000  0.06790000  0.56191000  1
  C  C773  1  0.47590000  0.09210000  0.56377000  1
  C  C774  1  0.44870000  0.10170000  0.59554000  1
  C  C775  1  0.44330000  0.10540000  0.53190000  1
  C  C776  1  0.36280000  0.13900000  0.50560000  1
  C  C777  1  0.44460000  0.11060000  0.47420000  1
  C  C778  1  0.26460000  0.16910000  0.47582000  1
  C  C779  1  0.20200000  0.18780000  0.47675000  1
  C  C780  1  0.16990000  0.19500000  0.50808000  1
  C  C781  1  0.20050000  0.18350000  0.53848000  1
  C  C782  1  0.26310000  0.16490000  0.53755000  1
  C  C783  1  0.29520000  0.15770000  0.50622000  1
  C  C784  1  0.09890000  0.21190000  0.50900000  1
  C  C785  1  0.47590000  0.10040000  0.44087000  1
  C  C786  1  0.53280000  0.07780000  0.44040000  1
  C  C787  1  0.56080000  0.06690000  0.40922000  1
  C  C788  1  0.53210000  0.07870000  0.37852000  1
  C  C789  1  0.47520000  0.10130000  0.37899000  1
  C  C790  1  0.44720000  0.11220000  0.41017000  1
  C  C791  1  0.55920000  0.06540000  0.34480000  1
  C  C792  1  0.68690000  0.81750000  0.75300000  1
  C  C793  1  0.68890000  0.78190000  0.75280000  1
  C  C794  1  0.68490000  0.67470000  0.74050000  1
  C  C795  1  0.71900000  0.61610000  0.72150000  1
  C  C796  1  0.94860000  0.60900000  0.71680000  1
  C  C797  1  0.87150000  0.66040000  0.71230000  1
  C  C798  1  0.80920000  0.67820000  0.71860000  1
  C  C799  1  0.75410000  0.66230000  0.73590000  1
  C  C800  1  0.76120000  0.62850000  0.74700000  1
  C  C801  1  0.82350000  0.61060000  0.74070000  1
  C  C802  1  0.87870000  0.62660000  0.72330000  1
  C  C803  1  0.05870000  0.54730000  0.15620000  1
  C  C804  1  0.97550000  0.58710000  0.12545000  1
  C  C805  1  0.02930000  0.56290000  0.12360000  1
  C  C806  1  0.05650000  0.55330000  0.09183000  1
  C  C807  1  0.02980000  0.56790000  0.06191000  1
  C  C808  1  0.97590000  0.59210000  0.06377000  1
  C  C809  1  0.94870000  0.60170000  0.09554000  1
  C  C810  1  0.94330000  0.60540000  0.03190000  1
  C  C811  1  0.86280000  0.63900000  0.00560000  1
  C  C812  1  0.94460000  0.61060000  0.97420000  1
  C  C813  1  0.76460000  0.66910000  0.97582000  1
  C  C814  1  0.70200000  0.68780000  0.97675000  1
  C  C815  1  0.66990000  0.69500000  0.00808000  1
  C  C816  1  0.70050000  0.68350000  0.03848000  1
  C  C817  1  0.76310000  0.66490000  0.03755000  1
  C  C818  1  0.79520000  0.65770000  0.00622000  1
  C  C819  1  0.59890000  0.71190000  0.00900000  1
  C  C820  1  0.97590000  0.60040000  0.94087000  1
  C  C821  1  0.03280000  0.57780000  0.94040000  1
  C  C822  1  0.06080000  0.56690000  0.90922000  1
  C  C823  1  0.03210000  0.57870000  0.87852000  1
  C  C824  1  0.97520000  0.60130000  0.87899000  1
  C  C825  1  0.94720000  0.61220000  0.91017000  1
  C  C826  1  0.05920000  0.56540000  0.84480000  1
  C  C827  1  0.18690000  0.31750000  0.25300000  1
  C  C828  1  0.18890000  0.28190000  0.25280000  1
  C  C829  1  0.18490000  0.17470000  0.24050000  1
  C  C830  1  0.39770000  0.07380000  0.22730000  1
  C  C831  1  0.27500000  0.09380000  0.21540000  1
  C  C832  1  0.21900000  0.11610000  0.22150000  1
  C  C833  1  0.23050000  0.14670000  0.23910000  1
  C  C834  1  0.29800000  0.15500000  0.25060000  1
  C  C835  1  0.35390000  0.13260000  0.24460000  1
  C  C836  1  0.34240000  0.10200000  0.22700000  1
  C  C837  1  0.55870000  0.95270000  0.34380000  1
  C  C838  1  0.47550000  0.91290000  0.37455000  1
  C  C839  1  0.52930000  0.93710000  0.37640000  1
  C  C840  1  0.55650000  0.94670000  0.40817000  1
  C  C841  1  0.52980000  0.93210000  0.43809000  1
  C  C842  1  0.47590000  0.90790000  0.43623000  1
  C  C843  1  0.44870000  0.89830000  0.40446000  1
  C  C844  1  0.44330000  0.89460000  0.46810000  1
  C  C845  1  0.36280000  0.86100000  0.49440000  1
  C  C846  1  0.44460000  0.88940000  0.52580000  1
  C  C847  1  0.26460000  0.83090000  0.52418000  1
  C  C848  1  0.20200000  0.81220000  0.52325000  1
  C  C849  1  0.16990000  0.80500000  0.49192000  1
  C  C850  1  0.20050000  0.81650000  0.46152000  1
  C  C851  1  0.26310000  0.83510000  0.46245000  1
  C  C852  1  0.29520000  0.84230000  0.49378000  1
  C  C853  1  0.09890000  0.78810000  0.49100000  1
  C  C854  1  0.47590000  0.89960000  0.55913000  1
  C  C855  1  0.53280000  0.92220000  0.55960000  1
  C  C856  1  0.56080000  0.93310000  0.59078000  1
  C  C857  1  0.53210000  0.92130000  0.62148000  1
  C  C858  1  0.47520000  0.89870000  0.62101000  1
  C  C859  1  0.44720000  0.88780000  0.58983000  1
  C  C860  1  0.55920000  0.93460000  0.65520000  1
  C  C861  1  0.68690000  0.18250000  0.24700000  1
  C  C862  1  0.68890000  0.21810000  0.24720000  1
  C  C863  1  0.68490000  0.32530000  0.25950000  1
  C  C864  1  0.89770000  0.42620000  0.27270000  1
  C  C865  1  0.77500000  0.40620000  0.28460000  1
  C  C866  1  0.71900000  0.38390000  0.27850000  1
  C  C867  1  0.73050000  0.35330000  0.26090000  1
  C  C868  1  0.79800000  0.34500000  0.24940000  1
  C  C869  1  0.85390000  0.36740000  0.25540000  1
  C  C870  1  0.84240000  0.39800000  0.27300000  1
  C  C871  1  0.05870000  0.45270000  0.84380000  1
  C  C872  1  0.97550000  0.41290000  0.87455000  1
  C  C873  1  0.02930000  0.43710000  0.87640000  1
  C  C874  1  0.05650000  0.44670000  0.90817000  1
  C  C875  1  0.02980000  0.43210000  0.93809000  1
  C  C876  1  0.97590000  0.40790000  0.93623000  1
  C  C877  1  0.94870000  0.39830000  0.90446000  1
  C  C878  1  0.94330000  0.39460000  0.96810000  1
  C  C879  1  0.86280000  0.36100000  0.99440000  1
  C  C880  1  0.94460000  0.38940000  0.02580000  1
  C  C881  1  0.76460000  0.33090000  0.02418000  1
  C  C882  1  0.70200000  0.31220000  0.02325000  1
  C  C883  1  0.66990000  0.30500000  0.99192000  1
  C  C884  1  0.70050000  0.31650000  0.96152000  1
  C  C885  1  0.76310000  0.33510000  0.96245000  1
  C  C886  1  0.79520000  0.34230000  0.99378000  1
  C  C887  1  0.59890000  0.28810000  0.99100000  1
  C  C888  1  0.97590000  0.39960000  0.05913000  1
  C  C889  1  0.03280000  0.42220000  0.05960000  1
  C  C890  1  0.06080000  0.43310000  0.09078000  1
  C  C891  1  0.03210000  0.42130000  0.12148000  1
  C  C892  1  0.97520000  0.39870000  0.12101000  1
  C  C893  1  0.94720000  0.38780000  0.08983000  1
  C  C894  1  0.05920000  0.43460000  0.15520000  1
  C  C895  1  0.18690000  0.68250000  0.74700000  1
  C  C896  1  0.18890000  0.71810000  0.74720000  1
  C  C897  1  0.18490000  0.82530000  0.75950000  1
  C  C898  1  0.44860000  0.89100000  0.78320000  1
  C  C899  1  0.37150000  0.83960000  0.78770000  1
  C  C900  1  0.30920000  0.82180000  0.78140000  1
  C  C901  1  0.25410000  0.83770000  0.76410000  1
  C  C902  1  0.26120000  0.87150000  0.75300000  1
  C  C903  1  0.32350000  0.88940000  0.75930000  1
  C  C904  1  0.37870000  0.87340000  0.77670000  1
  C  C905  1  0.87500000  0.25000000  0.39400000  1
  C  C906  1  0.87500000  0.25000000  0.35450000  1
  C  C907  1  0.87500000  0.25000000  0.62670000  1
  C  C908  1  0.87500000  0.25000000  0.66410000  1
  C  C909  1  0.87500000  0.25000000  0.77190000  1
  C  C910  1  0.87500000  0.25000000  0.73620000  1
  C  C911  1  0.37500000  0.75000000  0.89400000  1
  C  C912  1  0.37500000  0.75000000  0.85450000  1
  C  C913  1  0.37500000  0.75000000  0.12670000  1
  C  C914  1  0.37500000  0.75000000  0.16410000  1
  C  C915  1  0.37500000  0.75000000  0.27190000  1
  C  C916  1  0.37500000  0.75000000  0.23620000  1
  C  C917  1  0.87500000  0.75000000  0.60600000  1
  C  C918  1  0.87500000  0.75000000  0.64550000  1
  C  C919  1  0.87500000  0.75000000  0.37330000  1
  C  C920  1  0.87500000  0.75000000  0.33590000  1
  C  C921  1  0.87500000  0.75000000  0.22810000  1
  C  C922  1  0.87500000  0.75000000  0.26380000  1
  C  C923  1  0.37500000  0.25000000  0.10600000  1
  C  C924  1  0.37500000  0.25000000  0.14550000  1
  C  C925  1  0.37500000  0.25000000  0.87330000  1
  C  C926  1  0.37500000  0.25000000  0.83590000  1
  C  C927  1  0.37500000  0.25000000  0.72810000  1
  C  C928  1  0.37500000  0.25000000  0.76380000  1
  C  C929  1  0.12500000  0.39400000  0.75000000  1
  C  C930  1  0.12500000  0.35450000  0.75000000  1
  C  C931  1  0.12500000  0.62670000  0.75000000  1
  C  C932  1  0.12500000  0.66410000  0.75000000  1
  C  C933  1  0.12500000  0.77190000  0.75000000  1
  C  C934  1  0.12500000  0.73620000  0.75000000  1
  C  C935  1  0.12500000  0.60600000  0.25000000  1
  C  C936  1  0.12500000  0.64550000  0.25000000  1
  C  C937  1  0.12500000  0.37330000  0.25000000  1
  C  C938  1  0.12500000  0.33590000  0.25000000  1
  C  C939  1  0.12500000  0.22810000  0.25000000  1
  C  C940  1  0.12500000  0.26380000  0.25000000  1
  C  C941  1  0.62500000  0.10600000  0.75000000  1
  C  C942  1  0.62500000  0.14550000  0.75000000  1
  C  C943  1  0.62500000  0.87330000  0.75000000  1
  C  C944  1  0.62500000  0.83590000  0.75000000  1
  C  C945  1  0.62500000  0.72810000  0.75000000  1
  C  C946  1  0.62500000  0.76380000  0.75000000  1
  C  C947  1  0.62500000  0.89400000  0.25000000  1
  C  C948  1  0.62500000  0.85450000  0.25000000  1
  C  C949  1  0.62500000  0.12670000  0.25000000  1
  C  C950  1  0.62500000  0.16410000  0.25000000  1
  C  C951  1  0.62500000  0.27190000  0.25000000  1
  C  C952  1  0.62500000  0.23620000  0.25000000  1
  N  N953  1  0.63640000  0.46490000  0.37430000  1
  N  N954  1  0.63880000  0.52590000  0.36980000  1
  N  N955  1  0.72240000  0.49700000  0.40370000  1
  N  N956  1  0.93730000  0.25590000  0.78960000  1
  N  N957  1  0.13640000  0.96490000  0.87430000  1
  N  N958  1  0.13880000  0.02590000  0.86980000  1
  N  N959  1  0.22240000  0.99700000  0.90370000  1
  N  N960  1  0.43730000  0.75590000  0.28960000  1
  N  N961  1  0.63640000  0.53510000  0.62570000  1
  N  N962  1  0.63880000  0.47410000  0.63020000  1
  N  N963  1  0.72240000  0.50300000  0.59630000  1
  N  N964  1  0.93730000  0.74410000  0.21040000  1
  N  N965  1  0.13640000  0.03510000  0.12570000  1
  N  N966  1  0.13880000  0.97410000  0.13020000  1
  N  N967  1  0.22240000  0.00300000  0.09630000  1
  N  N968  1  0.43730000  0.24410000  0.71040000  1
  N  N969  1  0.36360000  0.37430000  0.53510000  1
  N  N970  1  0.36120000  0.36980000  0.47410000  1
  N  N971  1  0.27760000  0.40370000  0.50300000  1
  N  N972  1  0.06270000  0.78960000  0.74410000  1
  N  N973  1  0.86360000  0.87430000  0.03510000  1
  N  N974  1  0.86120000  0.86980000  0.97410000  1
  N  N975  1  0.77760000  0.90370000  0.00300000  1
  N  N976  1  0.56270000  0.28960000  0.24410000  1
  N  N977  1  0.36360000  0.62570000  0.46490000  1
  N  N978  1  0.36120000  0.63020000  0.52590000  1
  N  N979  1  0.27760000  0.59630000  0.49700000  1
  N  N980  1  0.06270000  0.21040000  0.25590000  1
  N  N981  1  0.86360000  0.12570000  0.96490000  1
  N  N982  1  0.86120000  0.13020000  0.02590000  1
  N  N983  1  0.77760000  0.09630000  0.99700000  1
  N  N984  1  0.56270000  0.71040000  0.75590000  1
  N  N985  1  0.11360000  0.03510000  0.37430000  1
  N  N986  1  0.11120000  0.97410000  0.36980000  1
  N  N987  1  0.02760000  0.00300000  0.40370000  1
  N  N988  1  0.81270000  0.24410000  0.78960000  1
  N  N989  1  0.61360000  0.53510000  0.87430000  1
  N  N990  1  0.61120000  0.47410000  0.86980000  1
  N  N991  1  0.52760000  0.50300000  0.90370000  1
  N  N992  1  0.31270000  0.74410000  0.28960000  1
  N  N993  1  0.11360000  0.96490000  0.62570000  1
  N  N994  1  0.11120000  0.02590000  0.63020000  1
  N  N995  1  0.02760000  0.99700000  0.59630000  1
  N  N996  1  0.81270000  0.75590000  0.21040000  1
  N  N997  1  0.61360000  0.46490000  0.12570000  1
  N  N998  1  0.61120000  0.52590000  0.13020000  1
  N  N999  1  0.52760000  0.49700000  0.09630000  1
  N  N1000  1  0.31270000  0.25590000  0.71040000  1
  N  N1001  1  0.38640000  0.12570000  0.53510000  1
  N  N1002  1  0.38880000  0.13020000  0.47410000  1
  N  N1003  1  0.47240000  0.09630000  0.50300000  1
  N  N1004  1  0.68730000  0.71040000  0.74410000  1
  N  N1005  1  0.88640000  0.62570000  0.03510000  1
  N  N1006  1  0.88880000  0.63020000  0.97410000  1
  N  N1007  1  0.97240000  0.59630000  0.00300000  1
  N  N1008  1  0.18730000  0.21040000  0.24410000  1
  N  N1009  1  0.38640000  0.87430000  0.46490000  1
  N  N1010  1  0.38880000  0.86980000  0.52590000  1
  N  N1011  1  0.47240000  0.90370000  0.49700000  1
  N  N1012  1  0.68730000  0.28960000  0.25590000  1
  N  N1013  1  0.88640000  0.37430000  0.96490000  1
  N  N1014  1  0.88880000  0.36980000  0.02590000  1
  N  N1015  1  0.97240000  0.40370000  0.99700000  1
  N  N1016  1  0.18730000  0.78960000  0.75590000  1
  N  N1017  1  0.87500000  0.25000000  0.84330000  1
  N  N1018  1  0.37500000  0.75000000  0.34330000  1
  N  N1019  1  0.87500000  0.75000000  0.15670000  1
  N  N1020  1  0.37500000  0.25000000  0.65670000  1
  N  N1021  1  0.12500000  0.84330000  0.75000000  1
  N  N1022  1  0.12500000  0.15670000  0.25000000  1
  N  N1023  1  0.62500000  0.65670000  0.75000000  1
  N  N1024  1  0.62500000  0.34330000  0.25000000  1
  O  O1025  1  0.77920000  0.31691000  0.44580000  1
  O  O1026  1  0.85940000  0.34783000  0.47390000  1
  O  O1027  1  0.32220000  0.46210000  0.28270000  1
  O  O1028  1  0.32110000  0.52027000  0.28030000  1
  O  O1029  1  0.77890000  0.68184000  0.42497000  1
  O  O1030  1  0.86040000  0.65247000  0.45550000  1
  O  O1031  1  0.81980000  0.26200000  0.40870000  1
  O  O1032  1  0.93250000  0.23900000  0.61100000  1
  O  O1033  1  0.85440000  0.21990000  0.46620000  1
  O  O1034  1  0.76560000  0.23290000  0.51130000  1
  O  O1035  1  0.94590000  0.20590000  0.51010000  1
  O  O1036  1  0.89650000  0.27960000  0.55540000  1
  O  O1037  1  0.20820000  0.26440000  0.91640000  1
  O  O1038  1  0.24260000  0.30480000  0.88120000  1
  O  O1039  1  0.27920000  0.81691000  0.94580000  1
  O  O1040  1  0.35940000  0.84783000  0.97390000  1
  O  O1041  1  0.82220000  0.96210000  0.78270000  1
  O  O1042  1  0.82110000  0.02027000  0.78030000  1
  O  O1043  1  0.27890000  0.18184000  0.92497000  1
  O  O1044  1  0.36040000  0.15247000  0.95550000  1
  O  O1045  1  0.31980000  0.76200000  0.90870000  1
  O  O1046  1  0.43250000  0.73900000  0.11100000  1
  O  O1047  1  0.35440000  0.71990000  0.96620000  1
  O  O1048  1  0.26560000  0.73290000  0.01130000  1
  O  O1049  1  0.44590000  0.70590000  0.01010000  1
  O  O1050  1  0.39650000  0.77960000  0.05540000  1
  O  O1051  1  0.70820000  0.76440000  0.41640000  1
  O  O1052  1  0.74260000  0.80480000  0.38120000  1
  O  O1053  1  0.77920000  0.68309000  0.55420000  1
  O  O1054  1  0.85940000  0.65217000  0.52610000  1
  O  O1055  1  0.32220000  0.53790000  0.71730000  1
  O  O1056  1  0.32110000  0.47973000  0.71970000  1
  O  O1057  1  0.77890000  0.31816000  0.57503000  1
  O  O1058  1  0.86040000  0.34753000  0.54450000  1
  O  O1059  1  0.81980000  0.73800000  0.59130000  1
  O  O1060  1  0.93250000  0.76100000  0.38900000  1
  O  O1061  1  0.85440000  0.78010000  0.53380000  1
  O  O1062  1  0.76560000  0.76710000  0.48870000  1
  O  O1063  1  0.94590000  0.79410000  0.48990000  1
  O  O1064  1  0.89650000  0.72040000  0.44460000  1
  O  O1065  1  0.20820000  0.73560000  0.08360000  1
  O  O1066  1  0.12290000  0.71740000  0.04520000  1
  O  O1067  1  0.27920000  0.18309000  0.05420000  1
  O  O1068  1  0.35940000  0.15217000  0.02610000  1
  O  O1069  1  0.82220000  0.03790000  0.21730000  1
  O  O1070  1  0.82110000  0.97973000  0.21970000  1
  O  O1071  1  0.27890000  0.81816000  0.07503000  1
  O  O1072  1  0.36040000  0.84753000  0.04450000  1
  O  O1073  1  0.31980000  0.23800000  0.09130000  1
  O  O1074  1  0.43250000  0.26100000  0.88900000  1
  O  O1075  1  0.35440000  0.28010000  0.03380000  1
  O  O1076  1  0.26560000  0.26710000  0.98870000  1
  O  O1077  1  0.44590000  0.29410000  0.98990000  1
  O  O1078  1  0.39650000  0.22040000  0.94460000  1
  O  O1079  1  0.70820000  0.23560000  0.58360000  1
  O  O1080  1  0.74260000  0.19520000  0.61880000  1
  O  O1081  1  0.22080000  0.44580000  0.68309000  1
  O  O1082  1  0.14060000  0.47390000  0.65217000  1
  O  O1083  1  0.67780000  0.28270000  0.53790000  1
  O  O1084  1  0.67890000  0.28030000  0.47973000  1
  O  O1085  1  0.22110000  0.42497000  0.31816000  1
  O  O1086  1  0.13960000  0.45550000  0.34753000  1
  O  O1087  1  0.18020000  0.40870000  0.73800000  1
  O  O1088  1  0.06750000  0.61100000  0.76100000  1
  O  O1089  1  0.14560000  0.46620000  0.78010000  1
  O  O1090  1  0.23440000  0.51130000  0.76710000  1
  O  O1091  1  0.05410000  0.51010000  0.79410000  1
  O  O1092  1  0.10350000  0.55540000  0.72040000  1
  O  O1093  1  0.79180000  0.91640000  0.73560000  1
  O  O1094  1  0.87710000  0.95480000  0.71740000  1
  O  O1095  1  0.72080000  0.94580000  0.18309000  1
  O  O1096  1  0.64060000  0.97390000  0.15217000  1
  O  O1097  1  0.17780000  0.78270000  0.03790000  1
  O  O1098  1  0.17890000  0.78030000  0.97973000  1
  O  O1099  1  0.72110000  0.92497000  0.81816000  1
  O  O1100  1  0.63960000  0.95550000  0.84753000  1
  O  O1101  1  0.68020000  0.90870000  0.23800000  1
  O  O1102  1  0.56750000  0.11100000  0.26100000  1
  O  O1103  1  0.64560000  0.96620000  0.28010000  1
  O  O1104  1  0.73440000  0.01130000  0.26710000  1
  O  O1105  1  0.55410000  0.01010000  0.29410000  1
  O  O1106  1  0.60350000  0.05540000  0.22040000  1
  O  O1107  1  0.29180000  0.41640000  0.23560000  1
  O  O1108  1  0.25740000  0.38120000  0.19520000  1
  O  O1109  1  0.22080000  0.55420000  0.31691000  1
  O  O1110  1  0.14060000  0.52610000  0.34783000  1
  O  O1111  1  0.67780000  0.71730000  0.46210000  1
  O  O1112  1  0.67890000  0.71970000  0.52027000  1
  O  O1113  1  0.22110000  0.57503000  0.68184000  1
  O  O1114  1  0.13960000  0.54450000  0.65247000  1
  O  O1115  1  0.18020000  0.59130000  0.26200000  1
  O  O1116  1  0.06750000  0.38900000  0.23900000  1
  O  O1117  1  0.14560000  0.53380000  0.21990000  1
  O  O1118  1  0.23440000  0.48870000  0.23290000  1
  O  O1119  1  0.05410000  0.48990000  0.20590000  1
  O  O1120  1  0.10350000  0.44460000  0.27960000  1
  O  O1121  1  0.79180000  0.08360000  0.26440000  1
  O  O1122  1  0.75740000  0.11880000  0.30480000  1
  O  O1123  1  0.72080000  0.05420000  0.81691000  1
  O  O1124  1  0.64060000  0.02610000  0.84783000  1
  O  O1125  1  0.17780000  0.21730000  0.96210000  1
  O  O1126  1  0.17890000  0.21970000  0.02027000  1
  O  O1127  1  0.72110000  0.07503000  0.18184000  1
  O  O1128  1  0.63960000  0.04450000  0.15247000  1
  O  O1129  1  0.68020000  0.09130000  0.76200000  1
  O  O1130  1  0.56750000  0.88900000  0.73900000  1
  O  O1131  1  0.64560000  0.03380000  0.71990000  1
  O  O1132  1  0.73440000  0.98870000  0.73290000  1
  O  O1133  1  0.55410000  0.98990000  0.70590000  1
  O  O1134  1  0.60350000  0.94460000  0.77960000  1
  O  O1135  1  0.29180000  0.58360000  0.76440000  1
  O  O1136  1  0.37710000  0.54520000  0.78260000  1
  O  O1137  1  0.97080000  0.18309000  0.44580000  1
  O  O1138  1  0.89060000  0.15217000  0.47390000  1
  O  O1139  1  0.42780000  0.03790000  0.28270000  1
  O  O1140  1  0.42890000  0.97973000  0.28030000  1
  O  O1141  1  0.97110000  0.81816000  0.42497000  1
  O  O1142  1  0.88960000  0.84753000  0.45550000  1
  O  O1143  1  0.93020000  0.23800000  0.40870000  1
  O  O1144  1  0.81750000  0.26100000  0.61100000  1
  O  O1145  1  0.89560000  0.28010000  0.46620000  1
  O  O1146  1  0.98440000  0.26710000  0.51130000  1
  O  O1147  1  0.80410000  0.29410000  0.51010000  1
  O  O1148  1  0.85350000  0.22040000  0.55540000  1
  O  O1149  1  0.54180000  0.23560000  0.91640000  1
  O  O1150  1  0.62710000  0.21740000  0.95480000  1
  O  O1151  1  0.47080000  0.68309000  0.94580000  1
  O  O1152  1  0.39060000  0.65217000  0.97390000  1
  O  O1153  1  0.92780000  0.53790000  0.78270000  1
  O  O1154  1  0.92890000  0.47973000  0.78030000  1
  O  O1155  1  0.47110000  0.31816000  0.92497000  1
  O  O1156  1  0.38960000  0.34753000  0.95550000  1
  O  O1157  1  0.43020000  0.73800000  0.90870000  1
  O  O1158  1  0.31750000  0.76100000  0.11100000  1
  O  O1159  1  0.39560000  0.78010000  0.96620000  1
  O  O1160  1  0.48440000  0.76710000  0.01130000  1
  O  O1161  1  0.30410000  0.79410000  0.01010000  1
  O  O1162  1  0.35350000  0.72040000  0.05540000  1
  O  O1163  1  0.04180000  0.73560000  0.41640000  1
  O  O1164  1  0.12710000  0.71740000  0.45480000  1
  O  O1165  1  0.97080000  0.81691000  0.55420000  1
  O  O1166  1  0.89060000  0.84783000  0.52610000  1
  O  O1167  1  0.42780000  0.96210000  0.71730000  1
  O  O1168  1  0.42890000  0.02027000  0.71970000  1
  O  O1169  1  0.97110000  0.18184000  0.57503000  1
  O  O1170  1  0.88960000  0.15247000  0.54450000  1
  O  O1171  1  0.93020000  0.76200000  0.59130000  1
  O  O1172  1  0.81750000  0.73900000  0.38900000  1
  O  O1173  1  0.89560000  0.71990000  0.53380000  1
  O  O1174  1  0.98440000  0.73290000  0.48870000  1
  O  O1175  1  0.80410000  0.70590000  0.48990000  1
  O  O1176  1  0.85350000  0.77960000  0.44460000  1
  O  O1177  1  0.54180000  0.76440000  0.08360000  1
  O  O1178  1  0.50740000  0.80480000  0.11880000  1
  O  O1179  1  0.47080000  0.31691000  0.05420000  1
  O  O1180  1  0.39060000  0.34783000  0.02610000  1
  O  O1181  1  0.92780000  0.46210000  0.21730000  1
  O  O1182  1  0.92890000  0.52027000  0.21970000  1
  O  O1183  1  0.47110000  0.68184000  0.07503000  1
  O  O1184  1  0.38960000  0.65247000  0.04450000  1
  O  O1185  1  0.43020000  0.26200000  0.09130000  1
  O  O1186  1  0.31750000  0.23900000  0.88900000  1
  O  O1187  1  0.39560000  0.21990000  0.03380000  1
  O  O1188  1  0.48440000  0.23290000  0.98870000  1
  O  O1189  1  0.30410000  0.20590000  0.98990000  1
  O  O1190  1  0.35350000  0.27960000  0.94460000  1
  O  O1191  1  0.04180000  0.26440000  0.58360000  1
  O  O1192  1  0.12710000  0.28260000  0.54520000  1
  O  O1193  1  0.52920000  0.05420000  0.68309000  1
  O  O1194  1  0.60940000  0.02610000  0.65217000  1
  O  O1195  1  0.07220000  0.21730000  0.53790000  1
  O  O1196  1  0.07110000  0.21970000  0.47973000  1
  O  O1197  1  0.52890000  0.07503000  0.31816000  1
  O  O1198  1  0.61040000  0.04450000  0.34753000  1
  O  O1199  1  0.56980000  0.09130000  0.73800000  1
  O  O1200  1  0.68250000  0.88900000  0.76100000  1
  O  O1201  1  0.60440000  0.03380000  0.78010000  1
  O  O1202  1  0.51560000  0.98870000  0.76710000  1
  O  O1203  1  0.69590000  0.98990000  0.79410000  1
  O  O1204  1  0.64650000  0.94460000  0.72040000  1
  O  O1205  1  0.95820000  0.58360000  0.73560000  1
  O  O1206  1  0.99260000  0.61880000  0.69520000  1
  O  O1207  1  0.02920000  0.55420000  0.18309000  1
  O  O1208  1  0.10940000  0.52610000  0.15217000  1
  O  O1209  1  0.57220000  0.71730000  0.03790000  1
  O  O1210  1  0.57110000  0.71970000  0.97973000  1
  O  O1211  1  0.02890000  0.57503000  0.81816000  1
  O  O1212  1  0.11040000  0.54450000  0.84753000  1
  O  O1213  1  0.06980000  0.59130000  0.23800000  1
  O  O1214  1  0.18250000  0.38900000  0.26100000  1
  O  O1215  1  0.10440000  0.53380000  0.28010000  1
  O  O1216  1  0.01560000  0.48870000  0.26710000  1
  O  O1217  1  0.19590000  0.48990000  0.29410000  1
  O  O1218  1  0.14650000  0.44460000  0.22040000  1
  O  O1219  1  0.45820000  0.08360000  0.23560000  1
  O  O1220  1  0.37290000  0.04520000  0.21740000  1
  O  O1221  1  0.52920000  0.94580000  0.31691000  1
  O  O1222  1  0.60940000  0.97390000  0.34783000  1
  O  O1223  1  0.07220000  0.78270000  0.46210000  1
  O  O1224  1  0.07110000  0.78030000  0.52027000  1
  O  O1225  1  0.52890000  0.92497000  0.68184000  1
  O  O1226  1  0.61040000  0.95550000  0.65247000  1
  O  O1227  1  0.56980000  0.90870000  0.26200000  1
  O  O1228  1  0.68250000  0.11100000  0.23900000  1
  O  O1229  1  0.60440000  0.96620000  0.21990000  1
  O  O1230  1  0.51560000  0.01130000  0.23290000  1
  O  O1231  1  0.69590000  0.01010000  0.20590000  1
  O  O1232  1  0.64650000  0.05540000  0.27960000  1
  O  O1233  1  0.95820000  0.41640000  0.26440000  1
  O  O1234  1  0.87290000  0.45480000  0.28260000  1
  O  O1235  1  0.02920000  0.44580000  0.81691000  1
  O  O1236  1  0.10940000  0.47390000  0.84783000  1
  O  O1237  1  0.57220000  0.28270000  0.96210000  1
  O  O1238  1  0.57110000  0.28030000  0.02027000  1
  O  O1239  1  0.02890000  0.42497000  0.18184000  1
  O  O1240  1  0.11040000  0.45550000  0.15247000  1
  O  O1241  1  0.06980000  0.40870000  0.76200000  1
  O  O1242  1  0.18250000  0.61100000  0.73900000  1
  O  O1243  1  0.10440000  0.46620000  0.71990000  1
  O  O1244  1  0.01560000  0.51130000  0.73290000  1
  O  O1245  1  0.19590000  0.51010000  0.70590000  1
  O  O1246  1  0.14650000  0.55540000  0.77960000  1
  O  O1247  1  0.45820000  0.91640000  0.76440000  1
  O  O1248  1  0.49260000  0.88120000  0.80480000  1
