# generated using pymatgen
data_Zr3H30C72(O8F3)2
_symmetry_space_group_name_H-M   'P 1'
_cell_length_a   39.83170000
_cell_length_b   39.83170000
_cell_length_c   39.83170000
_cell_angle_alpha   90.00000000
_cell_angle_beta   90.00000000
_cell_angle_gamma   90.00000000
_symmetry_Int_Tables_number   1
_chemical_formula_structural   Zr3H30C72(O8F3)2
_chemical_formula_sum   'Zr48 H480 C1152 O256 F96'
_cell_volume   63195.55421972
_cell_formula_units_Z   16
loop_
 _symmetry_equiv_pos_site_id
 _symmetry_equiv_pos_as_xyz
  1  'x, y, z'
loop_
 _atom_site_type_symbol
 _atom_site_label
 _atom_site_symmetry_multiplicity
 _atom_site_fract_x
 _atom_site_fract_y
 _atom_site_fract_z
 _atom_site_occupancy
  Zr  Zr0  1  0.56295000  0.12500000  0.12500000  1
  Zr  Zr1  1  0.56295000  0.62500000  0.62500000  1
  Zr  Zr2  1  0.06295000  0.12500000  0.62500000  1
  Zr  Zr3  1  0.06295000  0.62500000  0.12500000  1
  Zr  Zr4  1  0.18705000  0.12500000  0.62500000  1
  Zr  Zr5  1  0.68705000  0.62500000  0.62500000  1
  Zr  Zr6  1  0.68705000  0.12500000  0.12500000  1
  Zr  Zr7  1  0.12500000  0.56295000  0.12500000  1
  Zr  Zr8  1  0.12500000  0.06295000  0.62500000  1
  Zr  Zr9  1  0.62500000  0.06295000  0.12500000  1
  Zr  Zr10  1  0.62500000  0.18705000  0.12500000  1
  Zr  Zr11  1  0.62500000  0.68705000  0.62500000  1
  Zr  Zr12  1  0.62500000  0.56295000  0.62500000  1
  Zr  Zr13  1  0.12500000  0.12500000  0.56295000  1
  Zr  Zr14  1  0.12500000  0.62500000  0.06295000  1
  Zr  Zr15  1  0.62500000  0.12500000  0.06295000  1
  Zr  Zr16  1  0.12500000  0.62500000  0.18705000  1
  Zr  Zr17  1  0.12500000  0.12500000  0.68705000  1
  Zr  Zr18  1  0.62500000  0.62500000  0.68705000  1
  Zr  Zr19  1  0.62500000  0.62500000  0.56295000  1
  Zr  Zr20  1  0.87500000  0.81295000  0.37500000  1
  Zr  Zr21  1  0.87500000  0.31295000  0.87500000  1
  Zr  Zr22  1  0.87500000  0.43705000  0.87500000  1
  Zr  Zr23  1  0.37500000  0.93705000  0.87500000  1
  Zr  Zr24  1  0.37500000  0.43705000  0.37500000  1
  Zr  Zr25  1  0.37500000  0.31295000  0.37500000  1
  Zr  Zr26  1  0.31295000  0.37500000  0.37500000  1
  Zr  Zr27  1  0.31295000  0.87500000  0.87500000  1
  Zr  Zr28  1  0.93705000  0.87500000  0.37500000  1
  Zr  Zr29  1  0.43705000  0.87500000  0.87500000  1
  Zr  Zr30  1  0.43705000  0.37500000  0.37500000  1
  Zr  Zr31  1  0.81295000  0.37500000  0.87500000  1
  Zr  Zr32  1  0.87500000  0.37500000  0.93705000  1
  Zr  Zr33  1  0.37500000  0.37500000  0.31295000  1
  Zr  Zr34  1  0.87500000  0.87500000  0.31295000  1
  Zr  Zr35  1  0.37500000  0.87500000  0.81295000  1
  Zr  Zr36  1  0.87500000  0.87500000  0.43705000  1
  Zr  Zr37  1  0.81295000  0.87500000  0.37500000  1
  Zr  Zr38  1  0.93705000  0.37500000  0.87500000  1
  Zr  Zr39  1  0.37500000  0.81295000  0.87500000  1
  Zr  Zr40  1  0.87500000  0.93705000  0.37500000  1
  Zr  Zr41  1  0.87500000  0.37500000  0.81295000  1
  Zr  Zr42  1  0.37500000  0.87500000  0.93705000  1
  Zr  Zr43  1  0.37500000  0.37500000  0.43705000  1
  Zr  Zr44  1  0.12500000  0.18705000  0.62500000  1
  Zr  Zr45  1  0.12500000  0.68705000  0.12500000  1
  Zr  Zr46  1  0.18705000  0.62500000  0.12500000  1
  Zr  Zr47  1  0.62500000  0.12500000  0.18705000  1
  H  H48  1  0.48040000  0.05180000  0.11630000  1
  H  H49  1  0.43970000  0.01130000  0.10690000  1
  H  H50  1  0.43070000  0.85980000  0.09240000  1
  H  H51  1  0.48040000  0.55180000  0.61630000  1
  H  H52  1  0.43970000  0.51130000  0.60690000  1
  H  H53  1  0.98040000  0.05180000  0.61630000  1
  H  H54  1  0.93970000  0.01130000  0.60690000  1
  H  H55  1  0.93070000  0.85980000  0.59240000  1
  H  H56  1  0.98040000  0.55180000  0.11630000  1
  H  H57  1  0.93970000  0.51130000  0.10690000  1
  H  H58  1  0.26960000  0.19820000  0.61630000  1
  H  H59  1  0.31030000  0.23870000  0.60690000  1
  H  H60  1  0.26960000  0.69820000  0.11630000  1
  H  H61  1  0.31030000  0.73870000  0.10690000  1
  H  H62  1  0.31930000  0.89020000  0.09240000  1
  H  H63  1  0.76960000  0.19820000  0.11630000  1
  H  H64  1  0.81030000  0.23870000  0.10690000  1
  H  H65  1  0.76960000  0.69820000  0.61630000  1
  H  H66  1  0.81030000  0.73870000  0.60690000  1
  H  H67  1  0.81930000  0.89020000  0.59240000  1
  H  H68  1  0.76960000  0.55180000  0.63370000  1
  H  H69  1  0.81030000  0.51130000  0.64310000  1
  H  H70  1  0.81930000  0.35980000  0.65760000  1
  H  H71  1  0.76960000  0.05180000  0.13370000  1
  H  H72  1  0.81030000  0.01130000  0.14310000  1
  H  H73  1  0.26960000  0.55180000  0.13370000  1
  H  H74  1  0.31030000  0.51130000  0.14310000  1
  H  H75  1  0.31930000  0.35980000  0.15760000  1
  H  H76  1  0.26960000  0.05180000  0.63370000  1
  H  H77  1  0.31030000  0.01130000  0.64310000  1
  H  H78  1  0.98040000  0.69820000  0.13370000  1
  H  H79  1  0.93970000  0.73870000  0.14310000  1
  H  H80  1  0.98040000  0.19820000  0.63370000  1
  H  H81  1  0.93970000  0.23870000  0.64310000  1
  H  H82  1  0.93070000  0.39020000  0.65760000  1
  H  H83  1  0.48040000  0.69820000  0.63370000  1
  H  H84  1  0.43970000  0.73870000  0.64310000  1
  H  H85  1  0.48040000  0.19820000  0.13370000  1
  H  H86  1  0.43970000  0.23870000  0.14310000  1
  H  H87  1  0.43070000  0.39020000  0.15760000  1
  H  H88  1  0.11630000  0.48040000  0.05180000  1
  H  H89  1  0.10690000  0.43970000  0.01130000  1
  H  H90  1  0.09240000  0.43070000  0.85980000  1
  H  H91  1  0.11630000  0.98040000  0.55180000  1
  H  H92  1  0.10690000  0.93970000  0.51130000  1
  H  H93  1  0.61630000  0.48040000  0.55180000  1
  H  H94  1  0.60690000  0.43970000  0.51130000  1
  H  H95  1  0.59240000  0.43070000  0.35980000  1
  H  H96  1  0.61630000  0.98040000  0.05180000  1
  H  H97  1  0.60690000  0.93970000  0.01130000  1
  H  H98  1  0.61630000  0.26960000  0.19820000  1
  H  H99  1  0.60690000  0.31030000  0.23870000  1
  H  H100  1  0.59240000  0.31930000  0.39020000  1
  H  H101  1  0.61630000  0.76960000  0.69820000  1
  H  H102  1  0.60690000  0.81030000  0.73870000  1
  H  H103  1  0.11630000  0.26960000  0.69820000  1
  H  H104  1  0.10690000  0.31030000  0.73870000  1
  H  H105  1  0.09240000  0.31930000  0.89020000  1
  H  H106  1  0.11630000  0.76960000  0.19820000  1
  H  H107  1  0.10690000  0.81030000  0.23870000  1
  H  H108  1  0.63370000  0.76960000  0.55180000  1
  H  H109  1  0.64310000  0.81030000  0.51130000  1
  H  H110  1  0.65760000  0.81930000  0.35980000  1
  H  H111  1  0.63370000  0.26960000  0.05180000  1
  H  H112  1  0.64310000  0.31030000  0.01130000  1
  H  H113  1  0.13370000  0.76960000  0.05180000  1
  H  H114  1  0.14310000  0.81030000  0.01130000  1
  H  H115  1  0.15760000  0.81930000  0.85980000  1
  H  H116  1  0.13370000  0.26960000  0.55180000  1
  H  H117  1  0.14310000  0.31030000  0.51130000  1
  H  H118  1  0.13370000  0.98040000  0.69820000  1
  H  H119  1  0.14310000  0.93970000  0.73870000  1
  H  H120  1  0.15760000  0.93070000  0.89020000  1
  H  H121  1  0.13370000  0.48040000  0.19820000  1
  H  H122  1  0.14310000  0.43970000  0.23870000  1
  H  H123  1  0.63370000  0.98040000  0.19820000  1
  H  H124  1  0.64310000  0.93970000  0.23870000  1
  H  H125  1  0.65760000  0.93070000  0.39020000  1
  H  H126  1  0.63370000  0.48040000  0.69820000  1
  H  H127  1  0.64310000  0.43970000  0.73870000  1
  H  H128  1  0.05180000  0.11630000  0.48040000  1
  H  H129  1  0.01130000  0.10690000  0.43970000  1
  H  H130  1  0.85980000  0.09240000  0.43070000  1
  H  H131  1  0.05180000  0.61630000  0.98040000  1
  H  H132  1  0.01130000  0.60690000  0.93970000  1
  H  H133  1  0.55180000  0.11630000  0.98040000  1
  H  H134  1  0.51130000  0.10690000  0.93970000  1
  H  H135  1  0.35980000  0.09240000  0.93070000  1
  H  H136  1  0.55180000  0.61630000  0.48040000  1
  H  H137  1  0.51130000  0.60690000  0.43970000  1
  H  H138  1  0.35980000  0.59240000  0.43070000  1
  H  H139  1  0.19820000  0.61630000  0.26960000  1
  H  H140  1  0.23870000  0.60690000  0.31030000  1
  H  H141  1  0.39020000  0.59240000  0.31930000  1
  H  H142  1  0.19820000  0.11630000  0.76960000  1
  H  H143  1  0.23870000  0.10690000  0.81030000  1
  H  H144  1  0.39020000  0.09240000  0.81930000  1
  H  H145  1  0.69820000  0.61630000  0.76960000  1
  H  H146  1  0.73870000  0.60690000  0.81030000  1
  H  H147  1  0.69820000  0.11630000  0.26960000  1
  H  H148  1  0.73870000  0.10690000  0.31030000  1
  H  H149  1  0.89020000  0.09240000  0.31930000  1
  H  H150  1  0.55180000  0.63370000  0.76960000  1
  H  H151  1  0.51130000  0.64310000  0.81030000  1
  H  H152  1  0.35980000  0.65760000  0.81930000  1
  H  H153  1  0.55180000  0.13370000  0.26960000  1
  H  H154  1  0.51130000  0.14310000  0.31030000  1
  H  H155  1  0.35980000  0.15760000  0.31930000  1
  H  H156  1  0.05180000  0.63370000  0.26960000  1
  H  H157  1  0.01130000  0.64310000  0.31030000  1
  H  H158  1  0.05180000  0.13370000  0.76960000  1
  H  H159  1  0.01130000  0.14310000  0.81030000  1
  H  H160  1  0.69820000  0.13370000  0.98040000  1
  H  H161  1  0.73870000  0.14310000  0.93970000  1
  H  H162  1  0.69820000  0.63370000  0.48040000  1
  H  H163  1  0.73870000  0.64310000  0.43970000  1
  H  H164  1  0.19820000  0.13370000  0.48040000  1
  H  H165  1  0.23870000  0.14310000  0.43970000  1
  H  H166  1  0.39020000  0.15760000  0.43070000  1
  H  H167  1  0.19820000  0.63370000  0.98040000  1
  H  H168  1  0.23870000  0.64310000  0.93970000  1
  H  H169  1  0.39020000  0.65760000  0.93070000  1
  H  H170  1  0.80180000  0.73040000  0.38370000  1
  H  H171  1  0.76130000  0.68970000  0.39310000  1
  H  H172  1  0.60980000  0.68070000  0.40760000  1
  H  H173  1  0.80180000  0.23040000  0.88370000  1
  H  H174  1  0.76130000  0.18970000  0.89310000  1
  H  H175  1  0.30180000  0.73040000  0.88370000  1
  H  H176  1  0.26130000  0.68970000  0.89310000  1
  H  H177  1  0.10980000  0.68070000  0.90760000  1
  H  H178  1  0.30180000  0.23040000  0.38370000  1
  H  H179  1  0.26130000  0.18970000  0.39310000  1
  H  H180  1  0.94820000  0.51960000  0.88370000  1
  H  H181  1  0.98870000  0.56030000  0.89310000  1
  H  H182  1  0.14020000  0.56930000  0.90760000  1
  H  H183  1  0.94820000  0.01960000  0.38370000  1
  H  H184  1  0.98870000  0.06030000  0.39310000  1
  H  H185  1  0.44820000  0.51960000  0.38370000  1
  H  H186  1  0.48870000  0.56030000  0.39310000  1
  H  H187  1  0.64020000  0.56930000  0.40760000  1
  H  H188  1  0.44820000  0.01960000  0.88370000  1
  H  H189  1  0.48870000  0.06030000  0.89310000  1
  H  H190  1  0.30180000  0.01960000  0.86630000  1
  H  H191  1  0.26130000  0.06030000  0.85690000  1
  H  H192  1  0.10980000  0.06930000  0.84240000  1
  H  H193  1  0.30180000  0.51960000  0.36630000  1
  H  H194  1  0.26130000  0.56030000  0.35690000  1
  H  H195  1  0.10980000  0.56930000  0.34240000  1
  H  H196  1  0.80180000  0.01960000  0.36630000  1
  H  H197  1  0.76130000  0.06030000  0.35690000  1
  H  H198  1  0.60980000  0.06930000  0.34240000  1
  H  H199  1  0.80180000  0.51960000  0.86630000  1
  H  H200  1  0.76130000  0.56030000  0.85690000  1
  H  H201  1  0.60980000  0.56930000  0.84240000  1
  H  H202  1  0.44820000  0.23040000  0.36630000  1
  H  H203  1  0.48870000  0.18970000  0.35690000  1
  H  H204  1  0.64020000  0.18070000  0.34240000  1
  H  H205  1  0.44820000  0.73040000  0.86630000  1
  H  H206  1  0.48870000  0.68970000  0.85690000  1
  H  H207  1  0.64020000  0.68070000  0.84240000  1
  H  H208  1  0.94820000  0.23040000  0.86630000  1
  H  H209  1  0.98870000  0.18970000  0.85690000  1
  H  H210  1  0.14020000  0.18070000  0.84240000  1
  H  H211  1  0.94820000  0.73040000  0.36630000  1
  H  H212  1  0.98870000  0.68970000  0.35690000  1
  H  H213  1  0.14020000  0.68070000  0.34240000  1
  H  H214  1  0.23040000  0.36630000  0.44820000  1
  H  H215  1  0.18970000  0.35690000  0.48870000  1
  H  H216  1  0.23040000  0.86630000  0.94820000  1
  H  H217  1  0.18970000  0.85690000  0.98870000  1
  H  H218  1  0.73040000  0.36630000  0.94820000  1
  H  H219  1  0.68970000  0.35690000  0.98870000  1
  H  H220  1  0.73040000  0.86630000  0.44820000  1
  H  H221  1  0.68970000  0.85690000  0.48870000  1
  H  H222  1  0.01960000  0.86630000  0.30180000  1
  H  H223  1  0.06030000  0.85690000  0.26130000  1
  H  H224  1  0.01960000  0.36630000  0.80180000  1
  H  H225  1  0.06030000  0.35690000  0.76130000  1
  H  H226  1  0.51960000  0.86630000  0.80180000  1
  H  H227  1  0.56030000  0.85690000  0.76130000  1
  H  H228  1  0.51960000  0.36630000  0.30180000  1
  H  H229  1  0.56030000  0.35690000  0.26130000  1
  H  H230  1  0.51960000  0.88370000  0.94820000  1
  H  H231  1  0.56030000  0.89310000  0.98870000  1
  H  H232  1  0.56930000  0.90760000  0.14020000  1
  H  H233  1  0.51960000  0.38370000  0.44820000  1
  H  H234  1  0.56030000  0.39310000  0.48870000  1
  H  H235  1  0.01960000  0.88370000  0.44820000  1
  H  H236  1  0.06030000  0.89310000  0.48870000  1
  H  H237  1  0.01960000  0.38370000  0.94820000  1
  H  H238  1  0.06030000  0.39310000  0.98870000  1
  H  H239  1  0.06930000  0.40760000  0.14020000  1
  H  H240  1  0.73040000  0.38370000  0.80180000  1
  H  H241  1  0.68970000  0.39310000  0.76130000  1
  H  H242  1  0.73040000  0.88370000  0.30180000  1
  H  H243  1  0.68970000  0.89310000  0.26130000  1
  H  H244  1  0.68070000  0.90760000  0.10980000  1
  H  H245  1  0.23040000  0.38370000  0.30180000  1
  H  H246  1  0.18970000  0.39310000  0.26130000  1
  H  H247  1  0.18070000  0.40760000  0.10980000  1
  H  H248  1  0.23040000  0.88370000  0.80180000  1
  H  H249  1  0.18970000  0.89310000  0.76130000  1
  H  H250  1  0.86630000  0.30180000  0.01960000  1
  H  H251  1  0.85690000  0.26130000  0.06030000  1
  H  H252  1  0.86630000  0.80180000  0.51960000  1
  H  H253  1  0.85690000  0.76130000  0.56030000  1
  H  H254  1  0.36630000  0.30180000  0.51960000  1
  H  H255  1  0.35690000  0.26130000  0.56030000  1
  H  H256  1  0.36630000  0.80180000  0.01960000  1
  H  H257  1  0.35690000  0.76130000  0.06030000  1
  H  H258  1  0.36630000  0.44820000  0.23040000  1
  H  H259  1  0.35690000  0.48870000  0.18970000  1
  H  H260  1  0.36630000  0.94820000  0.73040000  1
  H  H261  1  0.35690000  0.98870000  0.68970000  1
  H  H262  1  0.86630000  0.44820000  0.73040000  1
  H  H263  1  0.85690000  0.48870000  0.68970000  1
  H  H264  1  0.86630000  0.94820000  0.23040000  1
  H  H265  1  0.85690000  0.98870000  0.18970000  1
  H  H266  1  0.38370000  0.80180000  0.73040000  1
  H  H267  1  0.39310000  0.76130000  0.68970000  1
  H  H268  1  0.38370000  0.30180000  0.23040000  1
  H  H269  1  0.39310000  0.26130000  0.18970000  1
  H  H270  1  0.40760000  0.10980000  0.18070000  1
  H  H271  1  0.88370000  0.80180000  0.23040000  1
  H  H272  1  0.89310000  0.76130000  0.18970000  1
  H  H273  1  0.88370000  0.30180000  0.73040000  1
  H  H274  1  0.89310000  0.26130000  0.68970000  1
  H  H275  1  0.90760000  0.10980000  0.68070000  1
  H  H276  1  0.88370000  0.94820000  0.51960000  1
  H  H277  1  0.89310000  0.98870000  0.56030000  1
  H  H278  1  0.90760000  0.14020000  0.56930000  1
  H  H279  1  0.88370000  0.44820000  0.01960000  1
  H  H280  1  0.89310000  0.48870000  0.06030000  1
  H  H281  1  0.38370000  0.94820000  0.01960000  1
  H  H282  1  0.39310000  0.98870000  0.06030000  1
  H  H283  1  0.40760000  0.14020000  0.06930000  1
  H  H284  1  0.38370000  0.44820000  0.51960000  1
  H  H285  1  0.39310000  0.48870000  0.56030000  1
  H  H286  1  0.51960000  0.94820000  0.88370000  1
  H  H287  1  0.56030000  0.98870000  0.89310000  1
  H  H288  1  0.56930000  0.14020000  0.90760000  1
  H  H289  1  0.51960000  0.44820000  0.38370000  1
  H  H290  1  0.56030000  0.48870000  0.39310000  1
  H  H291  1  0.01960000  0.94820000  0.38370000  1
  H  H292  1  0.06030000  0.98870000  0.39310000  1
  H  H293  1  0.06930000  0.14020000  0.40760000  1
  H  H294  1  0.01960000  0.44820000  0.88370000  1
  H  H295  1  0.06030000  0.48870000  0.89310000  1
  H  H296  1  0.73040000  0.80180000  0.38370000  1
  H  H297  1  0.68970000  0.76130000  0.39310000  1
  H  H298  1  0.73040000  0.30180000  0.88370000  1
  H  H299  1  0.68970000  0.26130000  0.89310000  1
  H  H300  1  0.68070000  0.10980000  0.90760000  1
  H  H301  1  0.23040000  0.80180000  0.88370000  1
  H  H302  1  0.18970000  0.76130000  0.89310000  1
  H  H303  1  0.23040000  0.30180000  0.38370000  1
  H  H304  1  0.18970000  0.26130000  0.39310000  1
  H  H305  1  0.18070000  0.10980000  0.40760000  1
  H  H306  1  0.23040000  0.44820000  0.36630000  1
  H  H307  1  0.18970000  0.48870000  0.35690000  1
  H  H308  1  0.23040000  0.94820000  0.86630000  1
  H  H309  1  0.18970000  0.98870000  0.85690000  1
  H  H310  1  0.73040000  0.44820000  0.86630000  1
  H  H311  1  0.68970000  0.48870000  0.85690000  1
  H  H312  1  0.73040000  0.94820000  0.36630000  1
  H  H313  1  0.68970000  0.98870000  0.35690000  1
  H  H314  1  0.01960000  0.30180000  0.86630000  1
  H  H315  1  0.06030000  0.26130000  0.85690000  1
  H  H316  1  0.01960000  0.80180000  0.36630000  1
  H  H317  1  0.06030000  0.76130000  0.35690000  1
  H  H318  1  0.51960000  0.30180000  0.36630000  1
  H  H319  1  0.56030000  0.26130000  0.35690000  1
  H  H320  1  0.51960000  0.80180000  0.86630000  1
  H  H321  1  0.56030000  0.76130000  0.85690000  1
  H  H322  1  0.88370000  0.51960000  0.94820000  1
  H  H323  1  0.89310000  0.56030000  0.98870000  1
  H  H324  1  0.90760000  0.56930000  0.14020000  1
  H  H325  1  0.88370000  0.01960000  0.44820000  1
  H  H326  1  0.89310000  0.06030000  0.48870000  1
  H  H327  1  0.38370000  0.51960000  0.44820000  1
  H  H328  1  0.39310000  0.56030000  0.48870000  1
  H  H329  1  0.40760000  0.56930000  0.64020000  1
  H  H330  1  0.38370000  0.01960000  0.94820000  1
  H  H331  1  0.39310000  0.06030000  0.98870000  1
  H  H332  1  0.38370000  0.73040000  0.80180000  1
  H  H333  1  0.39310000  0.68970000  0.76130000  1
  H  H334  1  0.40760000  0.68070000  0.60980000  1
  H  H335  1  0.38370000  0.23040000  0.30180000  1
  H  H336  1  0.39310000  0.18970000  0.26130000  1
  H  H337  1  0.88370000  0.73040000  0.30180000  1
  H  H338  1  0.89310000  0.68970000  0.26130000  1
  H  H339  1  0.90760000  0.68070000  0.10980000  1
  H  H340  1  0.88370000  0.23040000  0.80180000  1
  H  H341  1  0.89310000  0.18970000  0.76130000  1
  H  H342  1  0.36630000  0.23040000  0.44820000  1
  H  H343  1  0.35690000  0.18970000  0.48870000  1
  H  H344  1  0.34240000  0.18070000  0.64020000  1
  H  H345  1  0.36630000  0.73040000  0.94820000  1
  H  H346  1  0.35690000  0.68970000  0.98870000  1
  H  H347  1  0.34240000  0.68070000  0.14020000  1
  H  H348  1  0.86630000  0.23040000  0.94820000  1
  H  H349  1  0.85690000  0.18970000  0.98870000  1
  H  H350  1  0.84240000  0.18070000  0.14020000  1
  H  H351  1  0.86630000  0.73040000  0.44820000  1
  H  H352  1  0.85690000  0.68970000  0.48870000  1
  H  H353  1  0.84240000  0.68070000  0.64020000  1
  H  H354  1  0.86630000  0.01960000  0.30180000  1
  H  H355  1  0.85690000  0.06030000  0.26130000  1
  H  H356  1  0.84240000  0.06930000  0.10980000  1
  H  H357  1  0.86630000  0.51960000  0.80180000  1
  H  H358  1  0.85690000  0.56030000  0.76130000  1
  H  H359  1  0.84240000  0.56930000  0.60980000  1
  H  H360  1  0.36630000  0.01960000  0.80180000  1
  H  H361  1  0.35690000  0.06030000  0.76130000  1
  H  H362  1  0.34240000  0.06930000  0.60980000  1
  H  H363  1  0.36630000  0.51960000  0.30180000  1
  H  H364  1  0.35690000  0.56030000  0.26130000  1
  H  H365  1  0.34240000  0.56930000  0.10980000  1
  H  H366  1  0.94820000  0.88370000  0.51960000  1
  H  H367  1  0.98870000  0.89310000  0.56030000  1
  H  H368  1  0.14020000  0.90760000  0.56930000  1
  H  H369  1  0.94820000  0.38370000  0.01960000  1
  H  H370  1  0.98870000  0.39310000  0.06030000  1
  H  H371  1  0.44820000  0.88370000  0.01960000  1
  H  H372  1  0.48870000  0.89310000  0.06030000  1
  H  H373  1  0.44820000  0.38370000  0.51960000  1
  H  H374  1  0.48870000  0.39310000  0.56030000  1
  H  H375  1  0.64020000  0.40760000  0.56930000  1
  H  H376  1  0.80180000  0.38370000  0.73040000  1
  H  H377  1  0.76130000  0.39310000  0.68970000  1
  H  H378  1  0.60980000  0.40760000  0.68070000  1
  H  H379  1  0.80180000  0.88370000  0.23040000  1
  H  H380  1  0.76130000  0.89310000  0.18970000  1
  H  H381  1  0.30180000  0.38370000  0.23040000  1
  H  H382  1  0.26130000  0.39310000  0.18970000  1
  H  H383  1  0.30180000  0.88370000  0.73040000  1
  H  H384  1  0.26130000  0.89310000  0.68970000  1
  H  H385  1  0.10980000  0.90760000  0.68070000  1
  H  H386  1  0.44820000  0.36630000  0.23040000  1
  H  H387  1  0.48870000  0.35690000  0.18970000  1
  H  H388  1  0.64020000  0.34240000  0.18070000  1
  H  H389  1  0.44820000  0.86630000  0.73040000  1
  H  H390  1  0.48870000  0.85690000  0.68970000  1
  H  H391  1  0.64020000  0.84240000  0.68070000  1
  H  H392  1  0.94820000  0.36630000  0.73040000  1
  H  H393  1  0.98870000  0.35690000  0.68970000  1
  H  H394  1  0.14020000  0.34240000  0.68070000  1
  H  H395  1  0.94820000  0.86630000  0.23040000  1
  H  H396  1  0.98870000  0.85690000  0.18970000  1
  H  H397  1  0.14020000  0.84240000  0.18070000  1
  H  H398  1  0.30180000  0.86630000  0.01960000  1
  H  H399  1  0.26130000  0.85690000  0.06030000  1
  H  H400  1  0.10980000  0.84240000  0.06930000  1
  H  H401  1  0.30180000  0.36630000  0.51960000  1
  H  H402  1  0.26130000  0.35690000  0.56030000  1
  H  H403  1  0.10980000  0.34240000  0.56930000  1
  H  H404  1  0.80180000  0.86630000  0.51960000  1
  H  H405  1  0.76130000  0.85690000  0.56030000  1
  H  H406  1  0.60980000  0.84240000  0.56930000  1
  H  H407  1  0.80180000  0.36630000  0.01960000  1
  H  H408  1  0.76130000  0.35690000  0.06030000  1
  H  H409  1  0.60980000  0.34240000  0.06930000  1
  H  H410  1  0.19820000  0.26960000  0.61630000  1
  H  H411  1  0.23870000  0.31030000  0.60690000  1
  H  H412  1  0.39020000  0.31930000  0.59240000  1
  H  H413  1  0.19820000  0.76960000  0.11630000  1
  H  H414  1  0.23870000  0.81030000  0.10690000  1
  H  H415  1  0.69820000  0.26960000  0.11630000  1
  H  H416  1  0.73870000  0.31030000  0.10690000  1
  H  H417  1  0.89020000  0.31930000  0.09240000  1
  H  H418  1  0.69820000  0.76960000  0.61630000  1
  H  H419  1  0.73870000  0.81030000  0.60690000  1
  H  H420  1  0.05180000  0.48040000  0.11630000  1
  H  H421  1  0.01130000  0.43970000  0.10690000  1
  H  H422  1  0.85980000  0.43070000  0.09240000  1
  H  H423  1  0.05180000  0.98040000  0.61630000  1
  H  H424  1  0.01130000  0.93970000  0.60690000  1
  H  H425  1  0.55180000  0.48040000  0.61630000  1
  H  H426  1  0.51130000  0.43970000  0.60690000  1
  H  H427  1  0.35980000  0.43070000  0.59240000  1
  H  H428  1  0.55180000  0.98040000  0.11630000  1
  H  H429  1  0.51130000  0.93970000  0.10690000  1
  H  H430  1  0.69820000  0.98040000  0.13370000  1
  H  H431  1  0.73870000  0.93970000  0.14310000  1
  H  H432  1  0.89020000  0.93070000  0.15760000  1
  H  H433  1  0.69820000  0.48040000  0.63370000  1
  H  H434  1  0.73870000  0.43970000  0.64310000  1
  H  H435  1  0.19820000  0.98040000  0.63370000  1
  H  H436  1  0.23870000  0.93970000  0.64310000  1
  H  H437  1  0.39020000  0.93070000  0.65760000  1
  H  H438  1  0.19820000  0.48040000  0.13370000  1
  H  H439  1  0.23870000  0.43970000  0.14310000  1
  H  H440  1  0.55180000  0.76960000  0.63370000  1
  H  H441  1  0.51130000  0.81030000  0.64310000  1
  H  H442  1  0.35980000  0.81930000  0.65760000  1
  H  H443  1  0.55180000  0.26960000  0.13370000  1
  H  H444  1  0.51130000  0.31030000  0.14310000  1
  H  H445  1  0.05180000  0.76960000  0.13370000  1
  H  H446  1  0.01130000  0.81030000  0.14310000  1
  H  H447  1  0.85980000  0.81930000  0.15760000  1
  H  H448  1  0.05180000  0.26960000  0.63370000  1
  H  H449  1  0.01130000  0.31030000  0.64310000  1
  H  H450  1  0.76960000  0.63370000  0.55180000  1
  H  H451  1  0.81030000  0.64310000  0.51130000  1
  H  H452  1  0.81930000  0.65760000  0.35980000  1
  H  H453  1  0.76960000  0.13370000  0.05180000  1
  H  H454  1  0.81030000  0.14310000  0.01130000  1
  H  H455  1  0.81930000  0.15760000  0.85980000  1
  H  H456  1  0.26960000  0.63370000  0.05180000  1
  H  H457  1  0.31030000  0.64310000  0.01130000  1
  H  H458  1  0.26960000  0.13370000  0.55180000  1
  H  H459  1  0.31030000  0.14310000  0.51130000  1
  H  H460  1  0.98040000  0.13370000  0.69820000  1
  H  H461  1  0.93970000  0.14310000  0.73870000  1
  H  H462  1  0.93070000  0.15760000  0.89020000  1
  H  H463  1  0.98040000  0.63370000  0.19820000  1
  H  H464  1  0.93970000  0.64310000  0.23870000  1
  H  H465  1  0.93070000  0.65760000  0.39020000  1
  H  H466  1  0.48040000  0.13370000  0.19820000  1
  H  H467  1  0.43970000  0.14310000  0.23870000  1
  H  H468  1  0.48040000  0.63370000  0.69820000  1
  H  H469  1  0.43970000  0.64310000  0.73870000  1
  H  H470  1  0.48040000  0.11630000  0.05180000  1
  H  H471  1  0.43970000  0.10690000  0.01130000  1
  H  H472  1  0.48040000  0.61630000  0.55180000  1
  H  H473  1  0.43970000  0.60690000  0.51130000  1
  H  H474  1  0.98040000  0.11630000  0.55180000  1
  H  H475  1  0.93970000  0.10690000  0.51130000  1
  H  H476  1  0.98040000  0.61630000  0.05180000  1
  H  H477  1  0.93970000  0.60690000  0.01130000  1
  H  H478  1  0.93070000  0.59240000  0.85980000  1
  H  H479  1  0.26960000  0.61630000  0.19820000  1
  H  H480  1  0.31030000  0.60690000  0.23870000  1
  H  H481  1  0.26960000  0.11630000  0.69820000  1
  H  H482  1  0.31030000  0.10690000  0.73870000  1
  H  H483  1  0.76960000  0.61630000  0.69820000  1
  H  H484  1  0.81030000  0.60690000  0.73870000  1
  H  H485  1  0.81930000  0.59240000  0.89020000  1
  H  H486  1  0.76960000  0.11630000  0.19820000  1
  H  H487  1  0.81030000  0.10690000  0.23870000  1
  H  H488  1  0.13370000  0.69820000  0.98040000  1
  H  H489  1  0.14310000  0.73870000  0.93970000  1
  H  H490  1  0.13370000  0.19820000  0.48040000  1
  H  H491  1  0.14310000  0.23870000  0.43970000  1
  H  H492  1  0.15760000  0.39020000  0.43070000  1
  H  H493  1  0.63370000  0.69820000  0.48040000  1
  H  H494  1  0.64310000  0.73870000  0.43970000  1
  H  H495  1  0.63370000  0.19820000  0.98040000  1
  H  H496  1  0.64310000  0.23870000  0.93970000  1
  H  H497  1  0.65760000  0.39020000  0.93070000  1
  H  H498  1  0.63370000  0.55180000  0.76960000  1
  H  H499  1  0.64310000  0.51130000  0.81030000  1
  H  H500  1  0.65760000  0.35980000  0.81930000  1
  H  H501  1  0.63370000  0.05180000  0.26960000  1
  H  H502  1  0.64310000  0.01130000  0.31030000  1
  H  H503  1  0.13370000  0.55180000  0.26960000  1
  H  H504  1  0.14310000  0.51130000  0.31030000  1
  H  H505  1  0.15760000  0.35980000  0.31930000  1
  H  H506  1  0.13370000  0.05180000  0.76960000  1
  H  H507  1  0.14310000  0.01130000  0.81030000  1
  H  H508  1  0.61630000  0.19820000  0.26960000  1
  H  H509  1  0.60690000  0.23870000  0.31030000  1
  H  H510  1  0.61630000  0.69820000  0.76960000  1
  H  H511  1  0.60690000  0.73870000  0.81030000  1
  H  H512  1  0.59240000  0.89020000  0.81930000  1
  H  H513  1  0.11630000  0.19820000  0.76960000  1
  H  H514  1  0.10690000  0.23870000  0.81030000  1
  H  H515  1  0.11630000  0.69820000  0.26960000  1
  H  H516  1  0.10690000  0.73870000  0.31030000  1
  H  H517  1  0.09240000  0.89020000  0.31930000  1
  H  H518  1  0.11630000  0.05180000  0.48040000  1
  H  H519  1  0.10690000  0.01130000  0.43970000  1
  H  H520  1  0.09240000  0.85980000  0.43070000  1
  H  H521  1  0.11630000  0.55180000  0.98040000  1
  H  H522  1  0.10690000  0.51130000  0.93970000  1
  H  H523  1  0.61630000  0.05180000  0.98040000  1
  H  H524  1  0.60690000  0.01130000  0.93970000  1
  H  H525  1  0.59240000  0.85980000  0.93070000  1
  H  H526  1  0.61630000  0.55180000  0.48040000  1
  H  H527  1  0.60690000  0.51130000  0.43970000  1
  C  C528  1  0.48640000  0.02932000  0.11440000  1
  C  C529  1  0.46209000  0.00511000  0.10874000  1
  C  C530  1  0.40823000  0.86621000  0.09254000  1
  C  C531  1  0.48640000  0.52932000  0.61440000  1
  C  C532  1  0.46209000  0.50511000  0.60874000  1
  C  C533  1  0.40823000  0.36621000  0.59254000  1
  C  C534  1  0.98640000  0.02932000  0.61440000  1
  C  C535  1  0.96209000  0.00511000  0.60874000  1
  C  C536  1  0.90823000  0.86621000  0.59254000  1
  C  C537  1  0.98640000  0.52932000  0.11440000  1
  C  C538  1  0.96209000  0.50511000  0.10874000  1
  C  C539  1  0.90823000  0.36621000  0.09254000  1
  C  C540  1  0.26360000  0.22068000  0.61440000  1
  C  C541  1  0.28791000  0.24489000  0.60874000  1
  C  C542  1  0.34177000  0.38379000  0.59254000  1
  C  C543  1  0.26360000  0.72068000  0.11440000  1
  C  C544  1  0.28791000  0.74489000  0.10874000  1
  C  C545  1  0.34177000  0.88379000  0.09254000  1
  C  C546  1  0.76360000  0.22068000  0.11440000  1
  C  C547  1  0.78791000  0.24489000  0.10874000  1
  C  C548  1  0.84177000  0.38379000  0.09254000  1
  C  C549  1  0.76360000  0.72068000  0.61440000  1
  C  C550  1  0.78791000  0.74489000  0.60874000  1
  C  C551  1  0.84177000  0.88379000  0.59254000  1
  C  C552  1  0.76360000  0.52932000  0.63560000  1
  C  C553  1  0.78791000  0.50511000  0.64126000  1
  C  C554  1  0.84177000  0.36621000  0.65746000  1
  C  C555  1  0.76360000  0.02932000  0.13560000  1
  C  C556  1  0.78791000  0.00511000  0.14126000  1
  C  C557  1  0.84177000  0.86621000  0.15746000  1
  C  C558  1  0.26360000  0.52932000  0.13560000  1
  C  C559  1  0.28791000  0.50511000  0.14126000  1
  C  C560  1  0.34177000  0.36621000  0.15746000  1
  C  C561  1  0.26360000  0.02932000  0.63560000  1
  C  C562  1  0.28791000  0.00511000  0.64126000  1
  C  C563  1  0.34177000  0.86621000  0.65746000  1
  C  C564  1  0.98640000  0.72068000  0.13560000  1
  C  C565  1  0.96209000  0.74489000  0.14126000  1
  C  C566  1  0.90823000  0.88379000  0.15746000  1
  C  C567  1  0.98640000  0.22068000  0.63560000  1
  C  C568  1  0.96209000  0.24489000  0.64126000  1
  C  C569  1  0.90823000  0.38379000  0.65746000  1
  C  C570  1  0.48640000  0.72068000  0.63560000  1
  C  C571  1  0.46209000  0.74489000  0.64126000  1
  C  C572  1  0.40823000  0.88379000  0.65746000  1
  C  C573  1  0.48640000  0.22068000  0.13560000  1
  C  C574  1  0.46209000  0.24489000  0.14126000  1
  C  C575  1  0.40823000  0.38379000  0.15746000  1
  C  C576  1  0.11440000  0.48640000  0.02932000  1
  C  C577  1  0.10874000  0.46209000  0.00511000  1
  C  C578  1  0.09254000  0.40823000  0.86621000  1
  C  C579  1  0.11440000  0.98640000  0.52932000  1
  C  C580  1  0.10874000  0.96209000  0.50511000  1
  C  C581  1  0.09254000  0.90823000  0.36621000  1
  C  C582  1  0.61440000  0.48640000  0.52932000  1
  C  C583  1  0.60874000  0.46209000  0.50511000  1
  C  C584  1  0.59254000  0.40823000  0.36621000  1
  C  C585  1  0.61440000  0.98640000  0.02932000  1
  C  C586  1  0.60874000  0.96209000  0.00511000  1
  C  C587  1  0.59254000  0.90823000  0.86621000  1
  C  C588  1  0.61440000  0.26360000  0.22068000  1
  C  C589  1  0.60874000  0.28791000  0.24489000  1
  C  C590  1  0.59254000  0.34177000  0.38379000  1
  C  C591  1  0.61440000  0.76360000  0.72068000  1
  C  C592  1  0.60874000  0.78791000  0.74489000  1
  C  C593  1  0.59254000  0.84177000  0.88379000  1
  C  C594  1  0.11440000  0.26360000  0.72068000  1
  C  C595  1  0.10874000  0.28791000  0.74489000  1
  C  C596  1  0.09254000  0.34177000  0.88379000  1
  C  C597  1  0.11440000  0.76360000  0.22068000  1
  C  C598  1  0.10874000  0.78791000  0.24489000  1
  C  C599  1  0.09254000  0.84177000  0.38379000  1
  C  C600  1  0.63560000  0.76360000  0.52932000  1
  C  C601  1  0.64126000  0.78791000  0.50511000  1
  C  C602  1  0.65746000  0.84177000  0.36621000  1
  C  C603  1  0.63560000  0.26360000  0.02932000  1
  C  C604  1  0.64126000  0.28791000  0.00511000  1
  C  C605  1  0.65746000  0.34177000  0.86621000  1
  C  C606  1  0.13560000  0.76360000  0.02932000  1
  C  C607  1  0.14126000  0.78791000  0.00511000  1
  C  C608  1  0.15746000  0.84177000  0.86621000  1
  C  C609  1  0.13560000  0.26360000  0.52932000  1
  C  C610  1  0.14126000  0.28791000  0.50511000  1
  C  C611  1  0.15746000  0.34177000  0.36621000  1
  C  C612  1  0.13560000  0.98640000  0.72068000  1
  C  C613  1  0.14126000  0.96209000  0.74489000  1
  C  C614  1  0.15746000  0.90823000  0.88379000  1
  C  C615  1  0.13560000  0.48640000  0.22068000  1
  C  C616  1  0.14126000  0.46209000  0.24489000  1
  C  C617  1  0.15746000  0.40823000  0.38379000  1
  C  C618  1  0.63560000  0.98640000  0.22068000  1
  C  C619  1  0.64126000  0.96209000  0.24489000  1
  C  C620  1  0.65746000  0.90823000  0.38379000  1
  C  C621  1  0.63560000  0.48640000  0.72068000  1
  C  C622  1  0.64126000  0.46209000  0.74489000  1
  C  C623  1  0.65746000  0.40823000  0.88379000  1
  C  C624  1  0.02932000  0.11440000  0.48640000  1
  C  C625  1  0.00511000  0.10874000  0.46209000  1
  C  C626  1  0.86621000  0.09254000  0.40823000  1
  C  C627  1  0.02932000  0.61440000  0.98640000  1
  C  C628  1  0.00511000  0.60874000  0.96209000  1
  C  C629  1  0.86621000  0.59254000  0.90823000  1
  C  C630  1  0.52932000  0.11440000  0.98640000  1
  C  C631  1  0.50511000  0.10874000  0.96209000  1
  C  C632  1  0.36621000  0.09254000  0.90823000  1
  C  C633  1  0.52932000  0.61440000  0.48640000  1
  C  C634  1  0.50511000  0.60874000  0.46209000  1
  C  C635  1  0.36621000  0.59254000  0.40823000  1
  C  C636  1  0.22068000  0.61440000  0.26360000  1
  C  C637  1  0.24489000  0.60874000  0.28791000  1
  C  C638  1  0.38379000  0.59254000  0.34177000  1
  C  C639  1  0.22068000  0.11440000  0.76360000  1
  C  C640  1  0.24489000  0.10874000  0.78791000  1
  C  C641  1  0.38379000  0.09254000  0.84177000  1
  C  C642  1  0.72068000  0.61440000  0.76360000  1
  C  C643  1  0.74489000  0.60874000  0.78791000  1
  C  C644  1  0.88379000  0.59254000  0.84177000  1
  C  C645  1  0.72068000  0.11440000  0.26360000  1
  C  C646  1  0.74489000  0.10874000  0.28791000  1
  C  C647  1  0.88379000  0.09254000  0.34177000  1
  C  C648  1  0.52932000  0.63560000  0.76360000  1
  C  C649  1  0.50511000  0.64126000  0.78791000  1
  C  C650  1  0.36621000  0.65746000  0.84177000  1
  C  C651  1  0.52932000  0.13560000  0.26360000  1
  C  C652  1  0.50511000  0.14126000  0.28791000  1
  C  C653  1  0.36621000  0.15746000  0.34177000  1
  C  C654  1  0.02932000  0.63560000  0.26360000  1
  C  C655  1  0.00511000  0.64126000  0.28791000  1
  C  C656  1  0.86621000  0.65746000  0.34177000  1
  C  C657  1  0.02932000  0.13560000  0.76360000  1
  C  C658  1  0.00511000  0.14126000  0.78791000  1
  C  C659  1  0.86621000  0.15746000  0.84177000  1
  C  C660  1  0.72068000  0.13560000  0.98640000  1
  C  C661  1  0.74489000  0.14126000  0.96209000  1
  C  C662  1  0.88379000  0.15746000  0.90823000  1
  C  C663  1  0.72068000  0.63560000  0.48640000  1
  C  C664  1  0.74489000  0.64126000  0.46209000  1
  C  C665  1  0.88379000  0.65746000  0.40823000  1
  C  C666  1  0.22068000  0.13560000  0.48640000  1
  C  C667  1  0.24489000  0.14126000  0.46209000  1
  C  C668  1  0.38379000  0.15746000  0.40823000  1
  C  C669  1  0.22068000  0.63560000  0.98640000  1
  C  C670  1  0.24489000  0.64126000  0.96209000  1
  C  C671  1  0.38379000  0.65746000  0.90823000  1
  C  C672  1  0.77932000  0.73640000  0.38560000  1
  C  C673  1  0.75511000  0.71209000  0.39126000  1
  C  C674  1  0.61621000  0.65823000  0.40746000  1
  C  C675  1  0.77932000  0.23640000  0.88560000  1
  C  C676  1  0.75511000  0.21209000  0.89126000  1
  C  C677  1  0.61621000  0.15823000  0.90746000  1
  C  C678  1  0.27932000  0.73640000  0.88560000  1
  C  C679  1  0.25511000  0.71209000  0.89126000  1
  C  C680  1  0.11621000  0.65823000  0.90746000  1
  C  C681  1  0.27932000  0.23640000  0.38560000  1
  C  C682  1  0.25511000  0.21209000  0.39126000  1
  C  C683  1  0.11621000  0.15823000  0.40746000  1
  C  C684  1  0.97068000  0.51360000  0.88560000  1
  C  C685  1  0.99489000  0.53791000  0.89126000  1
  C  C686  1  0.13379000  0.59177000  0.90746000  1
  C  C687  1  0.97068000  0.01360000  0.38560000  1
  C  C688  1  0.99489000  0.03791000  0.39126000  1
  C  C689  1  0.13379000  0.09177000  0.40746000  1
  C  C690  1  0.47068000  0.51360000  0.38560000  1
  C  C691  1  0.49489000  0.53791000  0.39126000  1
  C  C692  1  0.63379000  0.59177000  0.40746000  1
  C  C693  1  0.47068000  0.01360000  0.88560000  1
  C  C694  1  0.49489000  0.03791000  0.89126000  1
  C  C695  1  0.63379000  0.09177000  0.90746000  1
  C  C696  1  0.27932000  0.01360000  0.86440000  1
  C  C697  1  0.25511000  0.03791000  0.85874000  1
  C  C698  1  0.11621000  0.09177000  0.84254000  1
  C  C699  1  0.27932000  0.51360000  0.36440000  1
  C  C700  1  0.25511000  0.53791000  0.35874000  1
  C  C701  1  0.11621000  0.59177000  0.34254000  1
  C  C702  1  0.77932000  0.01360000  0.36440000  1
  C  C703  1  0.75511000  0.03791000  0.35874000  1
  C  C704  1  0.61621000  0.09177000  0.34254000  1
  C  C705  1  0.77932000  0.51360000  0.86440000  1
  C  C706  1  0.75511000  0.53791000  0.85874000  1
  C  C707  1  0.61621000  0.59177000  0.84254000  1
  C  C708  1  0.47068000  0.23640000  0.36440000  1
  C  C709  1  0.49489000  0.21209000  0.35874000  1
  C  C710  1  0.63379000  0.15823000  0.34254000  1
  C  C711  1  0.47068000  0.73640000  0.86440000  1
  C  C712  1  0.49489000  0.71209000  0.85874000  1
  C  C713  1  0.63379000  0.65823000  0.84254000  1
  C  C714  1  0.97068000  0.23640000  0.86440000  1
  C  C715  1  0.99489000  0.21209000  0.85874000  1
  C  C716  1  0.13379000  0.15823000  0.84254000  1
  C  C717  1  0.97068000  0.73640000  0.36440000  1
  C  C718  1  0.99489000  0.71209000  0.35874000  1
  C  C719  1  0.13379000  0.65823000  0.34254000  1
  C  C720  1  0.23640000  0.36440000  0.47068000  1
  C  C721  1  0.21209000  0.35874000  0.49489000  1
  C  C722  1  0.15823000  0.34254000  0.63379000  1
  C  C723  1  0.23640000  0.86440000  0.97068000  1
  C  C724  1  0.21209000  0.85874000  0.99489000  1
  C  C725  1  0.15823000  0.84254000  0.13379000  1
  C  C726  1  0.73640000  0.36440000  0.97068000  1
  C  C727  1  0.71209000  0.35874000  0.99489000  1
  C  C728  1  0.65823000  0.34254000  0.13379000  1
  C  C729  1  0.73640000  0.86440000  0.47068000  1
  C  C730  1  0.71209000  0.85874000  0.49489000  1
  C  C731  1  0.65823000  0.84254000  0.63379000  1
  C  C732  1  0.01360000  0.86440000  0.27932000  1
  C  C733  1  0.03791000  0.85874000  0.25511000  1
  C  C734  1  0.09177000  0.84254000  0.11621000  1
  C  C735  1  0.01360000  0.36440000  0.77932000  1
  C  C736  1  0.03791000  0.35874000  0.75511000  1
  C  C737  1  0.09177000  0.34254000  0.61621000  1
  C  C738  1  0.51360000  0.86440000  0.77932000  1
  C  C739  1  0.53791000  0.85874000  0.75511000  1
  C  C740  1  0.59177000  0.84254000  0.61621000  1
  C  C741  1  0.51360000  0.36440000  0.27932000  1
  C  C742  1  0.53791000  0.35874000  0.25511000  1
  C  C743  1  0.59177000  0.34254000  0.11621000  1
  C  C744  1  0.51360000  0.88560000  0.97068000  1
  C  C745  1  0.53791000  0.89126000  0.99489000  1
  C  C746  1  0.59177000  0.90746000  0.13379000  1
  C  C747  1  0.51360000  0.38560000  0.47068000  1
  C  C748  1  0.53791000  0.39126000  0.49489000  1
  C  C749  1  0.59177000  0.40746000  0.63379000  1
  C  C750  1  0.01360000  0.88560000  0.47068000  1
  C  C751  1  0.03791000  0.89126000  0.49489000  1
  C  C752  1  0.09177000  0.90746000  0.63379000  1
  C  C753  1  0.01360000  0.38560000  0.97068000  1
  C  C754  1  0.03791000  0.39126000  0.99489000  1
  C  C755  1  0.09177000  0.40746000  0.13379000  1
  C  C756  1  0.73640000  0.38560000  0.77932000  1
  C  C757  1  0.71209000  0.39126000  0.75511000  1
  C  C758  1  0.65823000  0.40746000  0.61621000  1
  C  C759  1  0.73640000  0.88560000  0.27932000  1
  C  C760  1  0.71209000  0.89126000  0.25511000  1
  C  C761  1  0.65823000  0.90746000  0.11621000  1
  C  C762  1  0.23640000  0.38560000  0.27932000  1
  C  C763  1  0.21209000  0.39126000  0.25511000  1
  C  C764  1  0.15823000  0.40746000  0.11621000  1
  C  C765  1  0.23640000  0.88560000  0.77932000  1
  C  C766  1  0.21209000  0.89126000  0.75511000  1
  C  C767  1  0.15823000  0.90746000  0.61621000  1
  C  C768  1  0.86440000  0.27932000  0.01360000  1
  C  C769  1  0.85874000  0.25511000  0.03791000  1
  C  C770  1  0.84254000  0.11621000  0.09177000  1
  C  C771  1  0.86440000  0.77932000  0.51360000  1
  C  C772  1  0.85874000  0.75511000  0.53791000  1
  C  C773  1  0.84254000  0.61621000  0.59177000  1
  C  C774  1  0.36440000  0.27932000  0.51360000  1
  C  C775  1  0.35874000  0.25511000  0.53791000  1
  C  C776  1  0.34254000  0.11621000  0.59177000  1
  C  C777  1  0.36440000  0.77932000  0.01360000  1
  C  C778  1  0.35874000  0.75511000  0.03791000  1
  C  C779  1  0.34254000  0.61621000  0.09177000  1
  C  C780  1  0.36440000  0.47068000  0.23640000  1
  C  C781  1  0.35874000  0.49489000  0.21209000  1
  C  C782  1  0.34254000  0.63379000  0.15823000  1
  C  C783  1  0.36440000  0.97068000  0.73640000  1
  C  C784  1  0.35874000  0.99489000  0.71209000  1
  C  C785  1  0.34254000  0.13379000  0.65823000  1
  C  C786  1  0.86440000  0.47068000  0.73640000  1
  C  C787  1  0.85874000  0.49489000  0.71209000  1
  C  C788  1  0.84254000  0.63379000  0.65823000  1
  C  C789  1  0.86440000  0.97068000  0.23640000  1
  C  C790  1  0.85874000  0.99489000  0.21209000  1
  C  C791  1  0.84254000  0.13379000  0.15823000  1
  C  C792  1  0.38560000  0.77932000  0.73640000  1
  C  C793  1  0.39126000  0.75511000  0.71209000  1
  C  C794  1  0.40746000  0.61621000  0.65823000  1
  C  C795  1  0.38560000  0.27932000  0.23640000  1
  C  C796  1  0.39126000  0.25511000  0.21209000  1
  C  C797  1  0.40746000  0.11621000  0.15823000  1
  C  C798  1  0.88560000  0.77932000  0.23640000  1
  C  C799  1  0.89126000  0.75511000  0.21209000  1
  C  C800  1  0.90746000  0.61621000  0.15823000  1
  C  C801  1  0.88560000  0.27932000  0.73640000  1
  C  C802  1  0.89126000  0.25511000  0.71209000  1
  C  C803  1  0.90746000  0.11621000  0.65823000  1
  C  C804  1  0.88560000  0.97068000  0.51360000  1
  C  C805  1  0.89126000  0.99489000  0.53791000  1
  C  C806  1  0.90746000  0.13379000  0.59177000  1
  C  C807  1  0.88560000  0.47068000  0.01360000  1
  C  C808  1  0.89126000  0.49489000  0.03791000  1
  C  C809  1  0.90746000  0.63379000  0.09177000  1
  C  C810  1  0.38560000  0.97068000  0.01360000  1
  C  C811  1  0.39126000  0.99489000  0.03791000  1
  C  C812  1  0.40746000  0.13379000  0.09177000  1
  C  C813  1  0.38560000  0.47068000  0.51360000  1
  C  C814  1  0.39126000  0.49489000  0.53791000  1
  C  C815  1  0.40746000  0.63379000  0.59177000  1
  C  C816  1  0.51360000  0.97068000  0.88560000  1
  C  C817  1  0.53791000  0.99489000  0.89126000  1
  C  C818  1  0.59177000  0.13379000  0.90746000  1
  C  C819  1  0.51360000  0.47068000  0.38560000  1
  C  C820  1  0.53791000  0.49489000  0.39126000  1
  C  C821  1  0.59177000  0.63379000  0.40746000  1
  C  C822  1  0.01360000  0.97068000  0.38560000  1
  C  C823  1  0.03791000  0.99489000  0.39126000  1
  C  C824  1  0.09177000  0.13379000  0.40746000  1
  C  C825  1  0.01360000  0.47068000  0.88560000  1
  C  C826  1  0.03791000  0.49489000  0.89126000  1
  C  C827  1  0.09177000  0.63379000  0.90746000  1
  C  C828  1  0.73640000  0.77932000  0.38560000  1
  C  C829  1  0.71209000  0.75511000  0.39126000  1
  C  C830  1  0.65823000  0.61621000  0.40746000  1
  C  C831  1  0.73640000  0.27932000  0.88560000  1
  C  C832  1  0.71209000  0.25511000  0.89126000  1
  C  C833  1  0.65823000  0.11621000  0.90746000  1
  C  C834  1  0.23640000  0.77932000  0.88560000  1
  C  C835  1  0.21209000  0.75511000  0.89126000  1
  C  C836  1  0.15823000  0.61621000  0.90746000  1
  C  C837  1  0.23640000  0.27932000  0.38560000  1
  C  C838  1  0.21209000  0.25511000  0.39126000  1
  C  C839  1  0.15823000  0.11621000  0.40746000  1
  C  C840  1  0.23640000  0.47068000  0.36440000  1
  C  C841  1  0.21209000  0.49489000  0.35874000  1
  C  C842  1  0.15823000  0.63379000  0.34254000  1
  C  C843  1  0.23640000  0.97068000  0.86440000  1
  C  C844  1  0.21209000  0.99489000  0.85874000  1
  C  C845  1  0.15823000  0.13379000  0.84254000  1
  C  C846  1  0.73640000  0.47068000  0.86440000  1
  C  C847  1  0.71209000  0.49489000  0.85874000  1
  C  C848  1  0.65823000  0.63379000  0.84254000  1
  C  C849  1  0.73640000  0.97068000  0.36440000  1
  C  C850  1  0.71209000  0.99489000  0.35874000  1
  C  C851  1  0.65823000  0.13379000  0.34254000  1
  C  C852  1  0.01360000  0.27932000  0.86440000  1
  C  C853  1  0.03791000  0.25511000  0.85874000  1
  C  C854  1  0.09177000  0.11621000  0.84254000  1
  C  C855  1  0.01360000  0.77932000  0.36440000  1
  C  C856  1  0.03791000  0.75511000  0.35874000  1
  C  C857  1  0.09177000  0.61621000  0.34254000  1
  C  C858  1  0.51360000  0.27932000  0.36440000  1
  C  C859  1  0.53791000  0.25511000  0.35874000  1
  C  C860  1  0.59177000  0.11621000  0.34254000  1
  C  C861  1  0.51360000  0.77932000  0.86440000  1
  C  C862  1  0.53791000  0.75511000  0.85874000  1
  C  C863  1  0.59177000  0.61621000  0.84254000  1
  C  C864  1  0.88560000  0.51360000  0.97068000  1
  C  C865  1  0.89126000  0.53791000  0.99489000  1
  C  C866  1  0.90746000  0.59177000  0.13379000  1
  C  C867  1  0.88560000  0.01360000  0.47068000  1
  C  C868  1  0.89126000  0.03791000  0.49489000  1
  C  C869  1  0.90746000  0.09177000  0.63379000  1
  C  C870  1  0.38560000  0.51360000  0.47068000  1
  C  C871  1  0.39126000  0.53791000  0.49489000  1
  C  C872  1  0.40746000  0.59177000  0.63379000  1
  C  C873  1  0.38560000  0.01360000  0.97068000  1
  C  C874  1  0.39126000  0.03791000  0.99489000  1
  C  C875  1  0.40746000  0.09177000  0.13379000  1
  C  C876  1  0.38560000  0.73640000  0.77932000  1
  C  C877  1  0.39126000  0.71209000  0.75511000  1
  C  C878  1  0.40746000  0.65823000  0.61621000  1
  C  C879  1  0.38560000  0.23640000  0.27932000  1
  C  C880  1  0.39126000  0.21209000  0.25511000  1
  C  C881  1  0.40746000  0.15823000  0.11621000  1
  C  C882  1  0.88560000  0.73640000  0.27932000  1
  C  C883  1  0.89126000  0.71209000  0.25511000  1
  C  C884  1  0.90746000  0.65823000  0.11621000  1
  C  C885  1  0.88560000  0.23640000  0.77932000  1
  C  C886  1  0.89126000  0.21209000  0.75511000  1
  C  C887  1  0.90746000  0.15823000  0.61621000  1
  C  C888  1  0.36440000  0.23640000  0.47068000  1
  C  C889  1  0.35874000  0.21209000  0.49489000  1
  C  C890  1  0.34254000  0.15823000  0.63379000  1
  C  C891  1  0.36440000  0.73640000  0.97068000  1
  C  C892  1  0.35874000  0.71209000  0.99489000  1
  C  C893  1  0.34254000  0.65823000  0.13379000  1
  C  C894  1  0.86440000  0.23640000  0.97068000  1
  C  C895  1  0.85874000  0.21209000  0.99489000  1
  C  C896  1  0.84254000  0.15823000  0.13379000  1
  C  C897  1  0.86440000  0.73640000  0.47068000  1
  C  C898  1  0.85874000  0.71209000  0.49489000  1
  C  C899  1  0.84254000  0.65823000  0.63379000  1
  C  C900  1  0.86440000  0.01360000  0.27932000  1
  C  C901  1  0.85874000  0.03791000  0.25511000  1
  C  C902  1  0.84254000  0.09177000  0.11621000  1
  C  C903  1  0.86440000  0.51360000  0.77932000  1
  C  C904  1  0.85874000  0.53791000  0.75511000  1
  C  C905  1  0.84254000  0.59177000  0.61621000  1
  C  C906  1  0.36440000  0.01360000  0.77932000  1
  C  C907  1  0.35874000  0.03791000  0.75511000  1
  C  C908  1  0.34254000  0.09177000  0.61621000  1
  C  C909  1  0.36440000  0.51360000  0.27932000  1
  C  C910  1  0.35874000  0.53791000  0.25511000  1
  C  C911  1  0.34254000  0.59177000  0.11621000  1
  C  C912  1  0.97068000  0.88560000  0.51360000  1
  C  C913  1  0.99489000  0.89126000  0.53791000  1
  C  C914  1  0.13379000  0.90746000  0.59177000  1
  C  C915  1  0.97068000  0.38560000  0.01360000  1
  C  C916  1  0.99489000  0.39126000  0.03791000  1
  C  C917  1  0.13379000  0.40746000  0.09177000  1
  C  C918  1  0.47068000  0.88560000  0.01360000  1
  C  C919  1  0.49489000  0.89126000  0.03791000  1
  C  C920  1  0.63379000  0.90746000  0.09177000  1
  C  C921  1  0.47068000  0.38560000  0.51360000  1
  C  C922  1  0.49489000  0.39126000  0.53791000  1
  C  C923  1  0.63379000  0.40746000  0.59177000  1
  C  C924  1  0.77932000  0.38560000  0.73640000  1
  C  C925  1  0.75511000  0.39126000  0.71209000  1
  C  C926  1  0.61621000  0.40746000  0.65823000  1
  C  C927  1  0.77932000  0.88560000  0.23640000  1
  C  C928  1  0.75511000  0.89126000  0.21209000  1
  C  C929  1  0.61621000  0.90746000  0.15823000  1
  C  C930  1  0.27932000  0.38560000  0.23640000  1
  C  C931  1  0.25511000  0.39126000  0.21209000  1
  C  C932  1  0.11621000  0.40746000  0.15823000  1
  C  C933  1  0.27932000  0.88560000  0.73640000  1
  C  C934  1  0.25511000  0.89126000  0.71209000  1
  C  C935  1  0.11621000  0.90746000  0.65823000  1
  C  C936  1  0.47068000  0.36440000  0.23640000  1
  C  C937  1  0.49489000  0.35874000  0.21209000  1
  C  C938  1  0.63379000  0.34254000  0.15823000  1
  C  C939  1  0.47068000  0.86440000  0.73640000  1
  C  C940  1  0.49489000  0.85874000  0.71209000  1
  C  C941  1  0.63379000  0.84254000  0.65823000  1
  C  C942  1  0.97068000  0.36440000  0.73640000  1
  C  C943  1  0.99489000  0.35874000  0.71209000  1
  C  C944  1  0.13379000  0.34254000  0.65823000  1
  C  C945  1  0.97068000  0.86440000  0.23640000  1
  C  C946  1  0.99489000  0.85874000  0.21209000  1
  C  C947  1  0.13379000  0.84254000  0.15823000  1
  C  C948  1  0.27932000  0.86440000  0.01360000  1
  C  C949  1  0.25511000  0.85874000  0.03791000  1
  C  C950  1  0.11621000  0.84254000  0.09177000  1
  C  C951  1  0.27932000  0.36440000  0.51360000  1
  C  C952  1  0.25511000  0.35874000  0.53791000  1
  C  C953  1  0.11621000  0.34254000  0.59177000  1
  C  C954  1  0.77932000  0.86440000  0.51360000  1
  C  C955  1  0.75511000  0.85874000  0.53791000  1
  C  C956  1  0.61621000  0.84254000  0.59177000  1
  C  C957  1  0.77932000  0.36440000  0.01360000  1
  C  C958  1  0.75511000  0.35874000  0.03791000  1
  C  C959  1  0.61621000  0.34254000  0.09177000  1
  C  C960  1  0.22068000  0.26360000  0.61440000  1
  C  C961  1  0.24489000  0.28791000  0.60874000  1
  C  C962  1  0.38379000  0.34177000  0.59254000  1
  C  C963  1  0.22068000  0.76360000  0.11440000  1
  C  C964  1  0.24489000  0.78791000  0.10874000  1
  C  C965  1  0.38379000  0.84177000  0.09254000  1
  C  C966  1  0.72068000  0.26360000  0.11440000  1
  C  C967  1  0.74489000  0.28791000  0.10874000  1
  C  C968  1  0.88379000  0.34177000  0.09254000  1
  C  C969  1  0.72068000  0.76360000  0.61440000  1
  C  C970  1  0.74489000  0.78791000  0.60874000  1
  C  C971  1  0.88379000  0.84177000  0.59254000  1
  C  C972  1  0.02932000  0.48640000  0.11440000  1
  C  C973  1  0.00511000  0.46209000  0.10874000  1
  C  C974  1  0.86621000  0.40823000  0.09254000  1
  C  C975  1  0.02932000  0.98640000  0.61440000  1
  C  C976  1  0.00511000  0.96209000  0.60874000  1
  C  C977  1  0.86621000  0.90823000  0.59254000  1
  C  C978  1  0.52932000  0.48640000  0.61440000  1
  C  C979  1  0.50511000  0.46209000  0.60874000  1
  C  C980  1  0.36621000  0.40823000  0.59254000  1
  C  C981  1  0.52932000  0.98640000  0.11440000  1
  C  C982  1  0.50511000  0.96209000  0.10874000  1
  C  C983  1  0.36621000  0.90823000  0.09254000  1
  C  C984  1  0.72068000  0.98640000  0.13560000  1
  C  C985  1  0.74489000  0.96209000  0.14126000  1
  C  C986  1  0.88379000  0.90823000  0.15746000  1
  C  C987  1  0.72068000  0.48640000  0.63560000  1
  C  C988  1  0.74489000  0.46209000  0.64126000  1
  C  C989  1  0.88379000  0.40823000  0.65746000  1
  C  C990  1  0.22068000  0.98640000  0.63560000  1
  C  C991  1  0.24489000  0.96209000  0.64126000  1
  C  C992  1  0.38379000  0.90823000  0.65746000  1
  C  C993  1  0.22068000  0.48640000  0.13560000  1
  C  C994  1  0.24489000  0.46209000  0.14126000  1
  C  C995  1  0.38379000  0.40823000  0.15746000  1
  C  C996  1  0.52932000  0.76360000  0.63560000  1
  C  C997  1  0.50511000  0.78791000  0.64126000  1
  C  C998  1  0.36621000  0.84177000  0.65746000  1
  C  C999  1  0.52932000  0.26360000  0.13560000  1
  C  C1000  1  0.50511000  0.28791000  0.14126000  1
  C  C1001  1  0.36621000  0.34177000  0.15746000  1
  C  C1002  1  0.02932000  0.76360000  0.13560000  1
  C  C1003  1  0.00511000  0.78791000  0.14126000  1
  C  C1004  1  0.86621000  0.84177000  0.15746000  1
  C  C1005  1  0.02932000  0.26360000  0.63560000  1
  C  C1006  1  0.00511000  0.28791000  0.64126000  1
  C  C1007  1  0.86621000  0.34177000  0.65746000  1
  C  C1008  1  0.76360000  0.63560000  0.52932000  1
  C  C1009  1  0.78791000  0.64126000  0.50511000  1
  C  C1010  1  0.84177000  0.65746000  0.36621000  1
  C  C1011  1  0.76360000  0.13560000  0.02932000  1
  C  C1012  1  0.78791000  0.14126000  0.00511000  1
  C  C1013  1  0.84177000  0.15746000  0.86621000  1
  C  C1014  1  0.26360000  0.63560000  0.02932000  1
  C  C1015  1  0.28791000  0.64126000  0.00511000  1
  C  C1016  1  0.34177000  0.65746000  0.86621000  1
  C  C1017  1  0.26360000  0.13560000  0.52932000  1
  C  C1018  1  0.28791000  0.14126000  0.50511000  1
  C  C1019  1  0.34177000  0.15746000  0.36621000  1
  C  C1020  1  0.98640000  0.13560000  0.72068000  1
  C  C1021  1  0.96209000  0.14126000  0.74489000  1
  C  C1022  1  0.90823000  0.15746000  0.88379000  1
  C  C1023  1  0.98640000  0.63560000  0.22068000  1
  C  C1024  1  0.96209000  0.64126000  0.24489000  1
  C  C1025  1  0.90823000  0.65746000  0.38379000  1
  C  C1026  1  0.48640000  0.13560000  0.22068000  1
  C  C1027  1  0.46209000  0.14126000  0.24489000  1
  C  C1028  1  0.40823000  0.15746000  0.38379000  1
  C  C1029  1  0.48640000  0.63560000  0.72068000  1
  C  C1030  1  0.46209000  0.64126000  0.74489000  1
  C  C1031  1  0.40823000  0.65746000  0.88379000  1
  C  C1032  1  0.48640000  0.11440000  0.02932000  1
  C  C1033  1  0.46209000  0.10874000  0.00511000  1
  C  C1034  1  0.40823000  0.09254000  0.86621000  1
  C  C1035  1  0.48640000  0.61440000  0.52932000  1
  C  C1036  1  0.46209000  0.60874000  0.50511000  1
  C  C1037  1  0.40823000  0.59254000  0.36621000  1
  C  C1038  1  0.98640000  0.11440000  0.52932000  1
  C  C1039  1  0.96209000  0.10874000  0.50511000  1
  C  C1040  1  0.90823000  0.09254000  0.36621000  1
  C  C1041  1  0.98640000  0.61440000  0.02932000  1
  C  C1042  1  0.96209000  0.60874000  0.00511000  1
  C  C1043  1  0.90823000  0.59254000  0.86621000  1
  C  C1044  1  0.26360000  0.61440000  0.22068000  1
  C  C1045  1  0.28791000  0.60874000  0.24489000  1
  C  C1046  1  0.34177000  0.59254000  0.38379000  1
  C  C1047  1  0.26360000  0.11440000  0.72068000  1
  C  C1048  1  0.28791000  0.10874000  0.74489000  1
  C  C1049  1  0.34177000  0.09254000  0.88379000  1
  C  C1050  1  0.76360000  0.61440000  0.72068000  1
  C  C1051  1  0.78791000  0.60874000  0.74489000  1
  C  C1052  1  0.84177000  0.59254000  0.88379000  1
  C  C1053  1  0.76360000  0.11440000  0.22068000  1
  C  C1054  1  0.78791000  0.10874000  0.24489000  1
  C  C1055  1  0.84177000  0.09254000  0.38379000  1
  C  C1056  1  0.13560000  0.72068000  0.98640000  1
  C  C1057  1  0.14126000  0.74489000  0.96209000  1
  C  C1058  1  0.15746000  0.88379000  0.90823000  1
  C  C1059  1  0.13560000  0.22068000  0.48640000  1
  C  C1060  1  0.14126000  0.24489000  0.46209000  1
  C  C1061  1  0.15746000  0.38379000  0.40823000  1
  C  C1062  1  0.63560000  0.72068000  0.48640000  1
  C  C1063  1  0.64126000  0.74489000  0.46209000  1
  C  C1064  1  0.65746000  0.88379000  0.40823000  1
  C  C1065  1  0.63560000  0.22068000  0.98640000  1
  C  C1066  1  0.64126000  0.24489000  0.96209000  1
  C  C1067  1  0.65746000  0.38379000  0.90823000  1
  C  C1068  1  0.63560000  0.52932000  0.76360000  1
  C  C1069  1  0.64126000  0.50511000  0.78791000  1
  C  C1070  1  0.65746000  0.36621000  0.84177000  1
  C  C1071  1  0.63560000  0.02932000  0.26360000  1
  C  C1072  1  0.64126000  0.00511000  0.28791000  1
  C  C1073  1  0.65746000  0.86621000  0.34177000  1
  C  C1074  1  0.13560000  0.52932000  0.26360000  1
  C  C1075  1  0.14126000  0.50511000  0.28791000  1
  C  C1076  1  0.15746000  0.36621000  0.34177000  1
  C  C1077  1  0.13560000  0.02932000  0.76360000  1
  C  C1078  1  0.14126000  0.00511000  0.78791000  1
  C  C1079  1  0.15746000  0.86621000  0.84177000  1
  C  C1080  1  0.61440000  0.22068000  0.26360000  1
  C  C1081  1  0.60874000  0.24489000  0.28791000  1
  C  C1082  1  0.59254000  0.38379000  0.34177000  1
  C  C1083  1  0.61440000  0.72068000  0.76360000  1
  C  C1084  1  0.60874000  0.74489000  0.78791000  1
  C  C1085  1  0.59254000  0.88379000  0.84177000  1
  C  C1086  1  0.11440000  0.22068000  0.76360000  1
  C  C1087  1  0.10874000  0.24489000  0.78791000  1
  C  C1088  1  0.09254000  0.38379000  0.84177000  1
  C  C1089  1  0.11440000  0.72068000  0.26360000  1
  C  C1090  1  0.10874000  0.74489000  0.28791000  1
  C  C1091  1  0.09254000  0.88379000  0.34177000  1
  C  C1092  1  0.11440000  0.02932000  0.48640000  1
  C  C1093  1  0.10874000  0.00511000  0.46209000  1
  C  C1094  1  0.09254000  0.86621000  0.40823000  1
  C  C1095  1  0.11440000  0.52932000  0.98640000  1
  C  C1096  1  0.10874000  0.50511000  0.96209000  1
  C  C1097  1  0.09254000  0.36621000  0.90823000  1
  C  C1098  1  0.61440000  0.02932000  0.98640000  1
  C  C1099  1  0.60874000  0.00511000  0.96209000  1
  C  C1100  1  0.59254000  0.86621000  0.90823000  1
  C  C1101  1  0.61440000  0.52932000  0.48640000  1
  C  C1102  1  0.60874000  0.50511000  0.46209000  1
  C  C1103  1  0.59254000  0.36621000  0.40823000  1
  C  C1104  1  0.54623000  0.04623000  0.12205000  1
  C  C1105  1  0.51975000  0.01975000  0.11719000  1
  C  C1106  1  0.47136000  0.97136000  0.10580000  1
  C  C1107  1  0.40027000  0.90027000  0.09280000  1
  C  C1108  1  0.42535000  0.92535000  0.09560000  1
  C  C1109  1  0.44598000  0.94598000  0.09980000  1
  C  C1110  1  0.54623000  0.54623000  0.62205000  1
  C  C1111  1  0.51975000  0.51975000  0.61719000  1
  C  C1112  1  0.47136000  0.47136000  0.60580000  1
  C  C1113  1  0.40027000  0.40027000  0.59280000  1
  C  C1114  1  0.42535000  0.42535000  0.59560000  1
  C  C1115  1  0.44598000  0.44598000  0.59980000  1
  C  C1116  1  0.20377000  0.20377000  0.62205000  1
  C  C1117  1  0.23025000  0.23025000  0.61719000  1
  C  C1118  1  0.27864000  0.27864000  0.60580000  1
  C  C1119  1  0.34973000  0.34973000  0.59280000  1
  C  C1120  1  0.32465000  0.32465000  0.59560000  1
  C  C1121  1  0.30402000  0.30402000  0.59980000  1
  C  C1122  1  0.20377000  0.70377000  0.12205000  1
  C  C1123  1  0.23025000  0.73025000  0.11719000  1
  C  C1124  1  0.27864000  0.77864000  0.10580000  1
  C  C1125  1  0.34973000  0.84973000  0.09280000  1
  C  C1126  1  0.32465000  0.82465000  0.09560000  1
  C  C1127  1  0.30402000  0.80402000  0.09980000  1
  C  C1128  1  0.70377000  0.20377000  0.12205000  1
  C  C1129  1  0.73025000  0.23025000  0.11719000  1
  C  C1130  1  0.77864000  0.27864000  0.10580000  1
  C  C1131  1  0.84973000  0.34973000  0.09280000  1
  C  C1132  1  0.82465000  0.32465000  0.09560000  1
  C  C1133  1  0.80402000  0.30402000  0.09980000  1
  C  C1134  1  0.70377000  0.70377000  0.62205000  1
  C  C1135  1  0.73025000  0.73025000  0.61719000  1
  C  C1136  1  0.77864000  0.77864000  0.60580000  1
  C  C1137  1  0.84973000  0.84973000  0.59280000  1
  C  C1138  1  0.82465000  0.82465000  0.59560000  1
  C  C1139  1  0.80402000  0.80402000  0.59980000  1
  C  C1140  1  0.70377000  0.54623000  0.62795000  1
  C  C1141  1  0.73025000  0.51975000  0.63281000  1
  C  C1142  1  0.77864000  0.47136000  0.64420000  1
  C  C1143  1  0.84973000  0.40027000  0.65720000  1
  C  C1144  1  0.82465000  0.42535000  0.65440000  1
  C  C1145  1  0.80402000  0.44598000  0.65020000  1
  C  C1146  1  0.20377000  0.54623000  0.12795000  1
  C  C1147  1  0.23025000  0.51975000  0.13281000  1
  C  C1148  1  0.27864000  0.47136000  0.14420000  1
  C  C1149  1  0.34973000  0.40027000  0.15720000  1
  C  C1150  1  0.32465000  0.42535000  0.15440000  1
  C  C1151  1  0.30402000  0.44598000  0.15020000  1
  C  C1152  1  0.04623000  0.70377000  0.12795000  1
  C  C1153  1  0.01975000  0.73025000  0.13281000  1
  C  C1154  1  0.97136000  0.77864000  0.14420000  1
  C  C1155  1  0.90027000  0.84973000  0.15720000  1
  C  C1156  1  0.92535000  0.82465000  0.15440000  1
  C  C1157  1  0.94598000  0.80402000  0.15020000  1
  C  C1158  1  0.04623000  0.20377000  0.62795000  1
  C  C1159  1  0.01975000  0.23025000  0.63281000  1
  C  C1160  1  0.97136000  0.27864000  0.64420000  1
  C  C1161  1  0.90027000  0.34973000  0.65720000  1
  C  C1162  1  0.92535000  0.32465000  0.65440000  1
  C  C1163  1  0.94598000  0.30402000  0.65020000  1
  C  C1164  1  0.12205000  0.54623000  0.04623000  1
  C  C1165  1  0.11719000  0.51975000  0.01975000  1
  C  C1166  1  0.10580000  0.47136000  0.97136000  1
  C  C1167  1  0.09280000  0.40027000  0.90027000  1
  C  C1168  1  0.09560000  0.42535000  0.92535000  1
  C  C1169  1  0.09980000  0.44598000  0.94598000  1
  C  C1170  1  0.62205000  0.54623000  0.54623000  1
  C  C1171  1  0.61719000  0.51975000  0.51975000  1
  C  C1172  1  0.60580000  0.47136000  0.47136000  1
  C  C1173  1  0.59280000  0.40027000  0.40027000  1
  C  C1174  1  0.59560000  0.42535000  0.42535000  1
  C  C1175  1  0.59980000  0.44598000  0.44598000  1
  C  C1176  1  0.62205000  0.20377000  0.20377000  1
  C  C1177  1  0.61719000  0.23025000  0.23025000  1
  C  C1178  1  0.60580000  0.27864000  0.27864000  1
  C  C1179  1  0.59280000  0.34973000  0.34973000  1
  C  C1180  1  0.59560000  0.32465000  0.32465000  1
  C  C1181  1  0.59980000  0.30402000  0.30402000  1
  C  C1182  1  0.62205000  0.70377000  0.70377000  1
  C  C1183  1  0.61719000  0.73025000  0.73025000  1
  C  C1184  1  0.60580000  0.77864000  0.77864000  1
  C  C1185  1  0.59280000  0.84973000  0.84973000  1
  C  C1186  1  0.59560000  0.82465000  0.82465000  1
  C  C1187  1  0.59980000  0.80402000  0.80402000  1
  C  C1188  1  0.12205000  0.20377000  0.70377000  1
  C  C1189  1  0.11719000  0.23025000  0.73025000  1
  C  C1190  1  0.10580000  0.27864000  0.77864000  1
  C  C1191  1  0.09280000  0.34973000  0.84973000  1
  C  C1192  1  0.09560000  0.32465000  0.82465000  1
  C  C1193  1  0.09980000  0.30402000  0.80402000  1
  C  C1194  1  0.12205000  0.70377000  0.20377000  1
  C  C1195  1  0.11719000  0.73025000  0.23025000  1
  C  C1196  1  0.10580000  0.77864000  0.27864000  1
  C  C1197  1  0.09280000  0.84973000  0.34973000  1
  C  C1198  1  0.09560000  0.82465000  0.32465000  1
  C  C1199  1  0.09980000  0.80402000  0.30402000  1
  C  C1200  1  0.62795000  0.70377000  0.54623000  1
  C  C1201  1  0.63281000  0.73025000  0.51975000  1
  C  C1202  1  0.64420000  0.77864000  0.47136000  1
  C  C1203  1  0.65720000  0.84973000  0.40027000  1
  C  C1204  1  0.65440000  0.82465000  0.42535000  1
  C  C1205  1  0.65020000  0.80402000  0.44598000  1
  C  C1206  1  0.62795000  0.20377000  0.04623000  1
  C  C1207  1  0.63281000  0.23025000  0.01975000  1
  C  C1208  1  0.64420000  0.27864000  0.97136000  1
  C  C1209  1  0.65720000  0.34973000  0.90027000  1
  C  C1210  1  0.65440000  0.32465000  0.92535000  1
  C  C1211  1  0.65020000  0.30402000  0.94598000  1
  C  C1212  1  0.12795000  0.04623000  0.70377000  1
  C  C1213  1  0.13281000  0.01975000  0.73025000  1
  C  C1214  1  0.14420000  0.97136000  0.77864000  1
  C  C1215  1  0.15720000  0.90027000  0.84973000  1
  C  C1216  1  0.15440000  0.92535000  0.82465000  1
  C  C1217  1  0.15020000  0.94598000  0.80402000  1
  C  C1218  1  0.12795000  0.54623000  0.20377000  1
  C  C1219  1  0.13281000  0.51975000  0.23025000  1
  C  C1220  1  0.14420000  0.47136000  0.27864000  1
  C  C1221  1  0.15720000  0.40027000  0.34973000  1
  C  C1222  1  0.15440000  0.42535000  0.32465000  1
  C  C1223  1  0.15020000  0.44598000  0.30402000  1
  C  C1224  1  0.04623000  0.12205000  0.54623000  1
  C  C1225  1  0.01975000  0.11719000  0.51975000  1
  C  C1226  1  0.97136000  0.10580000  0.47136000  1
  C  C1227  1  0.90027000  0.09280000  0.40027000  1
  C  C1228  1  0.92535000  0.09560000  0.42535000  1
  C  C1229  1  0.94598000  0.09980000  0.44598000  1
  C  C1230  1  0.04623000  0.62205000  0.04623000  1
  C  C1231  1  0.01975000  0.61719000  0.01975000  1
  C  C1232  1  0.97136000  0.60580000  0.97136000  1
  C  C1233  1  0.90027000  0.59280000  0.90027000  1
  C  C1234  1  0.92535000  0.59560000  0.92535000  1
  C  C1235  1  0.94598000  0.59980000  0.94598000  1
  C  C1236  1  0.54623000  0.62205000  0.54623000  1
  C  C1237  1  0.51975000  0.61719000  0.51975000  1
  C  C1238  1  0.47136000  0.60580000  0.47136000  1
  C  C1239  1  0.40027000  0.59280000  0.40027000  1
  C  C1240  1  0.42535000  0.59560000  0.42535000  1
  C  C1241  1  0.44598000  0.59980000  0.44598000  1
  C  C1242  1  0.20377000  0.62205000  0.20377000  1
  C  C1243  1  0.23025000  0.61719000  0.23025000  1
  C  C1244  1  0.27864000  0.60580000  0.27864000  1
  C  C1245  1  0.34973000  0.59280000  0.34973000  1
  C  C1246  1  0.32465000  0.59560000  0.32465000  1
  C  C1247  1  0.30402000  0.59980000  0.30402000  1
  C  C1248  1  0.20377000  0.12205000  0.70377000  1
  C  C1249  1  0.23025000  0.11719000  0.73025000  1
  C  C1250  1  0.27864000  0.10580000  0.77864000  1
  C  C1251  1  0.34973000  0.09280000  0.84973000  1
  C  C1252  1  0.32465000  0.09560000  0.82465000  1
  C  C1253  1  0.30402000  0.09980000  0.80402000  1
  C  C1254  1  0.70377000  0.62205000  0.70377000  1
  C  C1255  1  0.73025000  0.61719000  0.73025000  1
  C  C1256  1  0.77864000  0.60580000  0.77864000  1
  C  C1257  1  0.84973000  0.59280000  0.84973000  1
  C  C1258  1  0.82465000  0.59560000  0.82465000  1
  C  C1259  1  0.80402000  0.59980000  0.80402000  1
  C  C1260  1  0.70377000  0.12205000  0.20377000  1
  C  C1261  1  0.73025000  0.11719000  0.23025000  1
  C  C1262  1  0.77864000  0.10580000  0.27864000  1
  C  C1263  1  0.84973000  0.09280000  0.34973000  1
  C  C1264  1  0.82465000  0.09560000  0.32465000  1
  C  C1265  1  0.80402000  0.09980000  0.30402000  1
  C  C1266  1  0.54623000  0.62795000  0.70377000  1
  C  C1267  1  0.51975000  0.63281000  0.73025000  1
  C  C1268  1  0.47136000  0.64420000  0.77864000  1
  C  C1269  1  0.40027000  0.65720000  0.84973000  1
  C  C1270  1  0.42535000  0.65440000  0.82465000  1
  C  C1271  1  0.44598000  0.65020000  0.80402000  1
  C  C1272  1  0.54623000  0.12795000  0.20377000  1
  C  C1273  1  0.51975000  0.13281000  0.23025000  1
  C  C1274  1  0.47136000  0.14420000  0.27864000  1
  C  C1275  1  0.40027000  0.15720000  0.34973000  1
  C  C1276  1  0.42535000  0.15440000  0.32465000  1
  C  C1277  1  0.44598000  0.15020000  0.30402000  1
  C  C1278  1  0.70377000  0.12795000  0.04623000  1
  C  C1279  1  0.73025000  0.13281000  0.01975000  1
  C  C1280  1  0.77864000  0.14420000  0.97136000  1
  C  C1281  1  0.84973000  0.15720000  0.90027000  1
  C  C1282  1  0.82465000  0.15440000  0.92535000  1
  C  C1283  1  0.80402000  0.15020000  0.94598000  1
  C  C1284  1  0.20377000  0.12795000  0.54623000  1
  C  C1285  1  0.23025000  0.13281000  0.51975000  1
  C  C1286  1  0.27864000  0.14420000  0.47136000  1
  C  C1287  1  0.34973000  0.15720000  0.40027000  1
  C  C1288  1  0.32465000  0.15440000  0.42535000  1
  C  C1289  1  0.30402000  0.15020000  0.44598000  1
  C  C1290  1  0.79623000  0.79623000  0.37795000  1
  C  C1291  1  0.76975000  0.76975000  0.38281000  1
  C  C1292  1  0.72136000  0.72136000  0.39420000  1
  C  C1293  1  0.65027000  0.65027000  0.40720000  1
  C  C1294  1  0.67535000  0.67535000  0.40440000  1
  C  C1295  1  0.69598000  0.69598000  0.40020000  1
  C  C1296  1  0.79623000  0.29623000  0.87795000  1
  C  C1297  1  0.76975000  0.26975000  0.88281000  1
  C  C1298  1  0.72136000  0.22136000  0.89420000  1
  C  C1299  1  0.65027000  0.15027000  0.90720000  1
  C  C1300  1  0.67535000  0.17535000  0.90440000  1
  C  C1301  1  0.69598000  0.19598000  0.90020000  1
  C  C1302  1  0.29623000  0.79623000  0.87795000  1
  C  C1303  1  0.26975000  0.76975000  0.88281000  1
  C  C1304  1  0.22136000  0.72136000  0.89420000  1
  C  C1305  1  0.15027000  0.65027000  0.90720000  1
  C  C1306  1  0.17535000  0.67535000  0.90440000  1
  C  C1307  1  0.19598000  0.69598000  0.90020000  1
  C  C1308  1  0.29623000  0.29623000  0.37795000  1
  C  C1309  1  0.26975000  0.26975000  0.38281000  1
  C  C1310  1  0.22136000  0.22136000  0.39420000  1
  C  C1311  1  0.15027000  0.15027000  0.40720000  1
  C  C1312  1  0.17535000  0.17535000  0.40440000  1
  C  C1313  1  0.19598000  0.19598000  0.40020000  1
  C  C1314  1  0.95377000  0.45377000  0.87795000  1
  C  C1315  1  0.98025000  0.48025000  0.88281000  1
  C  C1316  1  0.02864000  0.52864000  0.89420000  1
  C  C1317  1  0.09973000  0.59973000  0.90720000  1
  C  C1318  1  0.07465000  0.57465000  0.90440000  1
  C  C1319  1  0.05402000  0.55402000  0.90020000  1
  C  C1320  1  0.95377000  0.95377000  0.37795000  1
  C  C1321  1  0.98025000  0.98025000  0.38281000  1
  C  C1322  1  0.02864000  0.02864000  0.39420000  1
  C  C1323  1  0.09973000  0.09973000  0.40720000  1
  C  C1324  1  0.07465000  0.07465000  0.40440000  1
  C  C1325  1  0.05402000  0.05402000  0.40020000  1
  C  C1326  1  0.29623000  0.95377000  0.87205000  1
  C  C1327  1  0.26975000  0.98025000  0.86719000  1
  C  C1328  1  0.22136000  0.02864000  0.85580000  1
  C  C1329  1  0.15027000  0.09973000  0.84280000  1
  C  C1330  1  0.17535000  0.07465000  0.84560000  1
  C  C1331  1  0.19598000  0.05402000  0.84980000  1
  C  C1332  1  0.79623000  0.95377000  0.37205000  1
  C  C1333  1  0.76975000  0.98025000  0.36719000  1
  C  C1334  1  0.72136000  0.02864000  0.35580000  1
  C  C1335  1  0.65027000  0.09973000  0.34280000  1
  C  C1336  1  0.67535000  0.07465000  0.34560000  1
  C  C1337  1  0.69598000  0.05402000  0.34980000  1
  C  C1338  1  0.45377000  0.29623000  0.37205000  1
  C  C1339  1  0.48025000  0.26975000  0.36719000  1
  C  C1340  1  0.52864000  0.22136000  0.35580000  1
  C  C1341  1  0.59973000  0.15027000  0.34280000  1
  C  C1342  1  0.57465000  0.17535000  0.34560000  1
  C  C1343  1  0.55402000  0.19598000  0.34980000  1
  C  C1344  1  0.45377000  0.79623000  0.87205000  1
  C  C1345  1  0.48025000  0.76975000  0.86719000  1
  C  C1346  1  0.52864000  0.72136000  0.85580000  1
  C  C1347  1  0.59973000  0.65027000  0.84280000  1
  C  C1348  1  0.57465000  0.67535000  0.84560000  1
  C  C1349  1  0.55402000  0.69598000  0.84980000  1
  C  C1350  1  0.29623000  0.37205000  0.45377000  1
  C  C1351  1  0.26975000  0.36719000  0.48025000  1
  C  C1352  1  0.22136000  0.35580000  0.52864000  1
  C  C1353  1  0.15027000  0.34280000  0.59973000  1
  C  C1354  1  0.17535000  0.34560000  0.57465000  1
  C  C1355  1  0.19598000  0.34980000  0.55402000  1
  C  C1356  1  0.79623000  0.37205000  0.95377000  1
  C  C1357  1  0.76975000  0.36719000  0.98025000  1
  C  C1358  1  0.72136000  0.35580000  0.02864000  1
  C  C1359  1  0.65027000  0.34280000  0.09973000  1
  C  C1360  1  0.67535000  0.34560000  0.07465000  1
  C  C1361  1  0.69598000  0.34980000  0.05402000  1
  C  C1362  1  0.95377000  0.87205000  0.29623000  1
  C  C1363  1  0.98025000  0.86719000  0.26975000  1
  C  C1364  1  0.02864000  0.85580000  0.22136000  1
  C  C1365  1  0.09973000  0.84280000  0.15027000  1
  C  C1366  1  0.07465000  0.84560000  0.17535000  1
  C  C1367  1  0.05402000  0.84980000  0.19598000  1
  C  C1368  1  0.95377000  0.37205000  0.79623000  1
  C  C1369  1  0.98025000  0.36719000  0.76975000  1
  C  C1370  1  0.02864000  0.35580000  0.72136000  1
  C  C1371  1  0.09973000  0.34280000  0.65027000  1
  C  C1372  1  0.07465000  0.34560000  0.67535000  1
  C  C1373  1  0.05402000  0.34980000  0.69598000  1
  C  C1374  1  0.45377000  0.87795000  0.95377000  1
  C  C1375  1  0.48025000  0.88281000  0.98025000  1
  C  C1376  1  0.52864000  0.89420000  0.02864000  1
  C  C1377  1  0.59973000  0.90720000  0.09973000  1
  C  C1378  1  0.57465000  0.90440000  0.07465000  1
  C  C1379  1  0.55402000  0.90020000  0.05402000  1
  C  C1380  1  0.45377000  0.37795000  0.45377000  1
  C  C1381  1  0.48025000  0.38281000  0.48025000  1
  C  C1382  1  0.52864000  0.39420000  0.52864000  1
  C  C1383  1  0.59973000  0.40720000  0.59973000  1
  C  C1384  1  0.57465000  0.40440000  0.57465000  1
  C  C1385  1  0.55402000  0.40020000  0.55402000  1
  C  C1386  1  0.95377000  0.37795000  0.95377000  1
  C  C1387  1  0.98025000  0.38281000  0.98025000  1
  C  C1388  1  0.02864000  0.39420000  0.02864000  1
  C  C1389  1  0.09973000  0.40720000  0.09973000  1
  C  C1390  1  0.07465000  0.40440000  0.07465000  1
  C  C1391  1  0.05402000  0.40020000  0.05402000  1
  C  C1392  1  0.79623000  0.37795000  0.79623000  1
  C  C1393  1  0.76975000  0.38281000  0.76975000  1
  C  C1394  1  0.72136000  0.39420000  0.72136000  1
  C  C1395  1  0.65027000  0.40720000  0.65027000  1
  C  C1396  1  0.67535000  0.40440000  0.67535000  1
  C  C1397  1  0.69598000  0.40020000  0.69598000  1
  C  C1398  1  0.79623000  0.87795000  0.29623000  1
  C  C1399  1  0.76975000  0.88281000  0.26975000  1
  C  C1400  1  0.72136000  0.89420000  0.22136000  1
  C  C1401  1  0.65027000  0.90720000  0.15027000  1
  C  C1402  1  0.67535000  0.90440000  0.17535000  1
  C  C1403  1  0.69598000  0.90020000  0.19598000  1
  C  C1404  1  0.29623000  0.37795000  0.29623000  1
  C  C1405  1  0.26975000  0.38281000  0.26975000  1
  C  C1406  1  0.22136000  0.39420000  0.22136000  1
  C  C1407  1  0.15027000  0.40720000  0.15027000  1
  C  C1408  1  0.17535000  0.40440000  0.17535000  1
  C  C1409  1  0.19598000  0.40020000  0.19598000  1
  C  C1410  1  0.29623000  0.87795000  0.79623000  1
  C  C1411  1  0.26975000  0.88281000  0.76975000  1
  C  C1412  1  0.22136000  0.89420000  0.72136000  1
  C  C1413  1  0.15027000  0.90720000  0.65027000  1
  C  C1414  1  0.17535000  0.90440000  0.67535000  1
  C  C1415  1  0.19598000  0.90020000  0.69598000  1
  C  C1416  1  0.87205000  0.29623000  0.95377000  1
  C  C1417  1  0.86719000  0.26975000  0.98025000  1
  C  C1418  1  0.85580000  0.22136000  0.02864000  1
  C  C1419  1  0.84280000  0.15027000  0.09973000  1
  C  C1420  1  0.84560000  0.17535000  0.07465000  1
  C  C1421  1  0.84980000  0.19598000  0.05402000  1
  C  C1422  1  0.87205000  0.79623000  0.45377000  1
  C  C1423  1  0.86719000  0.76975000  0.48025000  1
  C  C1424  1  0.85580000  0.72136000  0.52864000  1
  C  C1425  1  0.84280000  0.65027000  0.59973000  1
  C  C1426  1  0.84560000  0.67535000  0.57465000  1
  C  C1427  1  0.84980000  0.69598000  0.55402000  1
  C  C1428  1  0.37205000  0.45377000  0.29623000  1
  C  C1429  1  0.36719000  0.48025000  0.26975000  1
  C  C1430  1  0.35580000  0.52864000  0.22136000  1
  C  C1431  1  0.34280000  0.59973000  0.15027000  1
  C  C1432  1  0.34560000  0.57465000  0.17535000  1
  C  C1433  1  0.34980000  0.55402000  0.19598000  1
  C  C1434  1  0.37205000  0.95377000  0.79623000  1
  C  C1435  1  0.36719000  0.98025000  0.76975000  1
  C  C1436  1  0.35580000  0.02864000  0.72136000  1
  C  C1437  1  0.34280000  0.09973000  0.65027000  1
  C  C1438  1  0.34560000  0.07465000  0.67535000  1
  C  C1439  1  0.34980000  0.05402000  0.69598000  1
  C  C1440  1  0.37795000  0.79623000  0.79623000  1
  C  C1441  1  0.38281000  0.76975000  0.76975000  1
  C  C1442  1  0.39420000  0.72136000  0.72136000  1
  C  C1443  1  0.40720000  0.65027000  0.65027000  1
  C  C1444  1  0.40440000  0.67535000  0.67535000  1
  C  C1445  1  0.40020000  0.69598000  0.69598000  1
  C  C1446  1  0.37795000  0.29623000  0.29623000  1
  C  C1447  1  0.38281000  0.26975000  0.26975000  1
  C  C1448  1  0.39420000  0.22136000  0.22136000  1
  C  C1449  1  0.40720000  0.15027000  0.15027000  1
  C  C1450  1  0.40440000  0.17535000  0.17535000  1
  C  C1451  1  0.40020000  0.19598000  0.19598000  1
  C  C1452  1  0.87795000  0.79623000  0.29623000  1
  C  C1453  1  0.88281000  0.76975000  0.26975000  1
  C  C1454  1  0.89420000  0.72136000  0.22136000  1
  C  C1455  1  0.90720000  0.65027000  0.15027000  1
  C  C1456  1  0.90440000  0.67535000  0.17535000  1
  C  C1457  1  0.90020000  0.69598000  0.19598000  1
  C  C1458  1  0.87795000  0.29623000  0.79623000  1
  C  C1459  1  0.88281000  0.26975000  0.76975000  1
  C  C1460  1  0.89420000  0.22136000  0.72136000  1
  C  C1461  1  0.90720000  0.15027000  0.65027000  1
  C  C1462  1  0.90440000  0.17535000  0.67535000  1
  C  C1463  1  0.90020000  0.19598000  0.69598000  1
  C  C1464  1  0.87795000  0.95377000  0.45377000  1
  C  C1465  1  0.88281000  0.98025000  0.48025000  1
  C  C1466  1  0.89420000  0.02864000  0.52864000  1
  C  C1467  1  0.90720000  0.09973000  0.59973000  1
  C  C1468  1  0.90440000  0.07465000  0.57465000  1
  C  C1469  1  0.90020000  0.05402000  0.55402000  1
  C  C1470  1  0.37795000  0.95377000  0.95377000  1
  C  C1471  1  0.38281000  0.98025000  0.98025000  1
  C  C1472  1  0.39420000  0.02864000  0.02864000  1
  C  C1473  1  0.40720000  0.09973000  0.09973000  1
  C  C1474  1  0.40440000  0.07465000  0.07465000  1
  C  C1475  1  0.40020000  0.05402000  0.05402000  1
  C  C1476  1  0.45377000  0.95377000  0.87795000  1
  C  C1477  1  0.48025000  0.98025000  0.88281000  1
  C  C1478  1  0.52864000  0.02864000  0.89420000  1
  C  C1479  1  0.59973000  0.09973000  0.90720000  1
  C  C1480  1  0.57465000  0.07465000  0.90440000  1
  C  C1481  1  0.55402000  0.05402000  0.90020000  1
  C  C1482  1  0.45377000  0.45377000  0.37795000  1
  C  C1483  1  0.48025000  0.48025000  0.38281000  1
  C  C1484  1  0.52864000  0.52864000  0.39420000  1
  C  C1485  1  0.59973000  0.59973000  0.40720000  1
  C  C1486  1  0.57465000  0.57465000  0.40440000  1
  C  C1487  1  0.55402000  0.55402000  0.40020000  1
  C  C1488  1  0.29623000  0.45377000  0.37205000  1
  C  C1489  1  0.26975000  0.48025000  0.36719000  1
  C  C1490  1  0.22136000  0.52864000  0.35580000  1
  C  C1491  1  0.15027000  0.59973000  0.34280000  1
  C  C1492  1  0.17535000  0.57465000  0.34560000  1
  C  C1493  1  0.19598000  0.55402000  0.34980000  1
  C  C1494  1  0.79623000  0.45377000  0.87205000  1
  C  C1495  1  0.76975000  0.48025000  0.86719000  1
  C  C1496  1  0.72136000  0.52864000  0.85580000  1
  C  C1497  1  0.65027000  0.59973000  0.84280000  1
  C  C1498  1  0.67535000  0.57465000  0.84560000  1
  C  C1499  1  0.69598000  0.55402000  0.84980000  1
  C  C1500  1  0.95377000  0.29623000  0.87205000  1
  C  C1501  1  0.98025000  0.26975000  0.86719000  1
  C  C1502  1  0.02864000  0.22136000  0.85580000  1
  C  C1503  1  0.09973000  0.15027000  0.84280000  1
  C  C1504  1  0.07465000  0.17535000  0.84560000  1
  C  C1505  1  0.05402000  0.19598000  0.84980000  1
  C  C1506  1  0.95377000  0.79623000  0.37205000  1
  C  C1507  1  0.98025000  0.76975000  0.36719000  1
  C  C1508  1  0.02864000  0.72136000  0.35580000  1
  C  C1509  1  0.09973000  0.65027000  0.34280000  1
  C  C1510  1  0.07465000  0.67535000  0.34560000  1
  C  C1511  1  0.05402000  0.69598000  0.34980000  1
  C  C1512  1  0.87795000  0.45377000  0.95377000  1
  C  C1513  1  0.88281000  0.48025000  0.98025000  1
  C  C1514  1  0.89420000  0.52864000  0.02864000  1
  C  C1515  1  0.90720000  0.59973000  0.09973000  1
  C  C1516  1  0.90440000  0.57465000  0.07465000  1
  C  C1517  1  0.90020000  0.55402000  0.05402000  1
  C  C1518  1  0.37795000  0.45377000  0.45377000  1
  C  C1519  1  0.38281000  0.48025000  0.48025000  1
  C  C1520  1  0.39420000  0.52864000  0.52864000  1
  C  C1521  1  0.40720000  0.59973000  0.59973000  1
  C  C1522  1  0.40440000  0.57465000  0.57465000  1
  C  C1523  1  0.40020000  0.55402000  0.55402000  1
  C  C1524  1  0.37205000  0.29623000  0.45377000  1
  C  C1525  1  0.36719000  0.26975000  0.48025000  1
  C  C1526  1  0.35580000  0.22136000  0.52864000  1
  C  C1527  1  0.34280000  0.15027000  0.59973000  1
  C  C1528  1  0.34560000  0.17535000  0.57465000  1
  C  C1529  1  0.34980000  0.19598000  0.55402000  1
  C  C1530  1  0.37205000  0.79623000  0.95377000  1
  C  C1531  1  0.36719000  0.76975000  0.98025000  1
  C  C1532  1  0.35580000  0.72136000  0.02864000  1
  C  C1533  1  0.34280000  0.65027000  0.09973000  1
  C  C1534  1  0.34560000  0.67535000  0.07465000  1
  C  C1535  1  0.34980000  0.69598000  0.05402000  1
  C  C1536  1  0.87205000  0.95377000  0.29623000  1
  C  C1537  1  0.86719000  0.98025000  0.26975000  1
  C  C1538  1  0.85580000  0.02864000  0.22136000  1
  C  C1539  1  0.84280000  0.09973000  0.15027000  1
  C  C1540  1  0.84560000  0.07465000  0.17535000  1
  C  C1541  1  0.84980000  0.05402000  0.19598000  1
  C  C1542  1  0.87205000  0.45377000  0.79623000  1
  C  C1543  1  0.86719000  0.48025000  0.76975000  1
  C  C1544  1  0.85580000  0.52864000  0.72136000  1
  C  C1545  1  0.84280000  0.59973000  0.65027000  1
  C  C1546  1  0.84560000  0.57465000  0.67535000  1
  C  C1547  1  0.84980000  0.55402000  0.69598000  1
  C  C1548  1  0.95377000  0.87795000  0.45377000  1
  C  C1549  1  0.98025000  0.88281000  0.48025000  1
  C  C1550  1  0.02864000  0.89420000  0.52864000  1
  C  C1551  1  0.09973000  0.90720000  0.59973000  1
  C  C1552  1  0.07465000  0.90440000  0.57465000  1
  C  C1553  1  0.05402000  0.90020000  0.55402000  1
  C  C1554  1  0.45377000  0.37205000  0.29623000  1
  C  C1555  1  0.48025000  0.36719000  0.26975000  1
  C  C1556  1  0.52864000  0.35580000  0.22136000  1
  C  C1557  1  0.59973000  0.34280000  0.15027000  1
  C  C1558  1  0.57465000  0.34560000  0.17535000  1
  C  C1559  1  0.55402000  0.34980000  0.19598000  1
  C  C1560  1  0.45377000  0.87205000  0.79623000  1
  C  C1561  1  0.48025000  0.86719000  0.76975000  1
  C  C1562  1  0.52864000  0.85580000  0.72136000  1
  C  C1563  1  0.59973000  0.84280000  0.65027000  1
  C  C1564  1  0.57465000  0.84560000  0.67535000  1
  C  C1565  1  0.55402000  0.84980000  0.69598000  1
  C  C1566  1  0.29623000  0.87205000  0.95377000  1
  C  C1567  1  0.26975000  0.86719000  0.98025000  1
  C  C1568  1  0.22136000  0.85580000  0.02864000  1
  C  C1569  1  0.15027000  0.84280000  0.09973000  1
  C  C1570  1  0.17535000  0.84560000  0.07465000  1
  C  C1571  1  0.19598000  0.84980000  0.05402000  1
  C  C1572  1  0.79623000  0.87205000  0.45377000  1
  C  C1573  1  0.76975000  0.86719000  0.48025000  1
  C  C1574  1  0.72136000  0.85580000  0.52864000  1
  C  C1575  1  0.65027000  0.84280000  0.59973000  1
  C  C1576  1  0.67535000  0.84560000  0.57465000  1
  C  C1577  1  0.69598000  0.84980000  0.55402000  1
  C  C1578  1  0.04623000  0.54623000  0.12205000  1
  C  C1579  1  0.01975000  0.51975000  0.11719000  1
  C  C1580  1  0.97136000  0.47136000  0.10580000  1
  C  C1581  1  0.90027000  0.40027000  0.09280000  1
  C  C1582  1  0.92535000  0.42535000  0.09560000  1
  C  C1583  1  0.94598000  0.44598000  0.09980000  1
  C  C1584  1  0.04623000  0.04623000  0.62205000  1
  C  C1585  1  0.01975000  0.01975000  0.61719000  1
  C  C1586  1  0.97136000  0.97136000  0.60580000  1
  C  C1587  1  0.90027000  0.90027000  0.59280000  1
  C  C1588  1  0.92535000  0.92535000  0.59560000  1
  C  C1589  1  0.94598000  0.94598000  0.59980000  1
  C  C1590  1  0.70377000  0.04623000  0.12795000  1
  C  C1591  1  0.73025000  0.01975000  0.13281000  1
  C  C1592  1  0.77864000  0.97136000  0.14420000  1
  C  C1593  1  0.84973000  0.90027000  0.15720000  1
  C  C1594  1  0.82465000  0.92535000  0.15440000  1
  C  C1595  1  0.80402000  0.94598000  0.15020000  1
  C  C1596  1  0.20377000  0.04623000  0.62795000  1
  C  C1597  1  0.23025000  0.01975000  0.63281000  1
  C  C1598  1  0.27864000  0.97136000  0.64420000  1
  C  C1599  1  0.34973000  0.90027000  0.65720000  1
  C  C1600  1  0.32465000  0.92535000  0.65440000  1
  C  C1601  1  0.30402000  0.94598000  0.65020000  1
  C  C1602  1  0.54623000  0.70377000  0.62795000  1
  C  C1603  1  0.51975000  0.73025000  0.63281000  1
  C  C1604  1  0.47136000  0.77864000  0.64420000  1
  C  C1605  1  0.40027000  0.84973000  0.65720000  1
  C  C1606  1  0.42535000  0.82465000  0.65440000  1
  C  C1607  1  0.44598000  0.80402000  0.65020000  1
  C  C1608  1  0.54623000  0.20377000  0.12795000  1
  C  C1609  1  0.51975000  0.23025000  0.13281000  1
  C  C1610  1  0.47136000  0.27864000  0.14420000  1
  C  C1611  1  0.40027000  0.34973000  0.15720000  1
  C  C1612  1  0.42535000  0.32465000  0.15440000  1
  C  C1613  1  0.44598000  0.30402000  0.15020000  1
  C  C1614  1  0.70377000  0.62795000  0.54623000  1
  C  C1615  1  0.73025000  0.63281000  0.51975000  1
  C  C1616  1  0.77864000  0.64420000  0.47136000  1
  C  C1617  1  0.84973000  0.65720000  0.40027000  1
  C  C1618  1  0.82465000  0.65440000  0.42535000  1
  C  C1619  1  0.80402000  0.65020000  0.44598000  1
  C  C1620  1  0.20377000  0.62795000  0.04623000  1
  C  C1621  1  0.23025000  0.63281000  0.01975000  1
  C  C1622  1  0.27864000  0.64420000  0.97136000  1
  C  C1623  1  0.34973000  0.65720000  0.90027000  1
  C  C1624  1  0.32465000  0.65440000  0.92535000  1
  C  C1625  1  0.30402000  0.65020000  0.94598000  1
  C  C1626  1  0.04623000  0.12795000  0.70377000  1
  C  C1627  1  0.01975000  0.13281000  0.73025000  1
  C  C1628  1  0.97136000  0.14420000  0.77864000  1
  C  C1629  1  0.90027000  0.15720000  0.84973000  1
  C  C1630  1  0.92535000  0.15440000  0.82465000  1
  C  C1631  1  0.94598000  0.15020000  0.80402000  1
  C  C1632  1  0.04623000  0.62795000  0.20377000  1
  C  C1633  1  0.01975000  0.63281000  0.23025000  1
  C  C1634  1  0.97136000  0.64420000  0.27864000  1
  C  C1635  1  0.90027000  0.65720000  0.34973000  1
  C  C1636  1  0.92535000  0.65440000  0.32465000  1
  C  C1637  1  0.94598000  0.65020000  0.30402000  1
  C  C1638  1  0.54623000  0.12205000  0.04623000  1
  C  C1639  1  0.51975000  0.11719000  0.01975000  1
  C  C1640  1  0.47136000  0.10580000  0.97136000  1
  C  C1641  1  0.40027000  0.09280000  0.90027000  1
  C  C1642  1  0.42535000  0.09560000  0.92535000  1
  C  C1643  1  0.44598000  0.09980000  0.94598000  1
  C  C1644  1  0.12795000  0.70377000  0.04623000  1
  C  C1645  1  0.13281000  0.73025000  0.01975000  1
  C  C1646  1  0.14420000  0.77864000  0.97136000  1
  C  C1647  1  0.15720000  0.84973000  0.90027000  1
  C  C1648  1  0.15440000  0.82465000  0.92535000  1
  C  C1649  1  0.15020000  0.80402000  0.94598000  1
  C  C1650  1  0.12795000  0.20377000  0.54623000  1
  C  C1651  1  0.13281000  0.23025000  0.51975000  1
  C  C1652  1  0.14420000  0.27864000  0.47136000  1
  C  C1653  1  0.15720000  0.34973000  0.40027000  1
  C  C1654  1  0.15440000  0.32465000  0.42535000  1
  C  C1655  1  0.15020000  0.30402000  0.44598000  1
  C  C1656  1  0.62795000  0.54623000  0.70377000  1
  C  C1657  1  0.63281000  0.51975000  0.73025000  1
  C  C1658  1  0.64420000  0.47136000  0.77864000  1
  C  C1659  1  0.65720000  0.40027000  0.84973000  1
  C  C1660  1  0.65440000  0.42535000  0.82465000  1
  C  C1661  1  0.65020000  0.44598000  0.80402000  1
  C  C1662  1  0.62795000  0.04623000  0.20377000  1
  C  C1663  1  0.63281000  0.01975000  0.23025000  1
  C  C1664  1  0.64420000  0.97136000  0.27864000  1
  C  C1665  1  0.65720000  0.90027000  0.34973000  1
  C  C1666  1  0.65440000  0.92535000  0.32465000  1
  C  C1667  1  0.65020000  0.94598000  0.30402000  1
  C  C1668  1  0.12205000  0.04623000  0.54623000  1
  C  C1669  1  0.11719000  0.01975000  0.51975000  1
  C  C1670  1  0.10580000  0.97136000  0.47136000  1
  C  C1671  1  0.09280000  0.90027000  0.40027000  1
  C  C1672  1  0.09560000  0.92535000  0.42535000  1
  C  C1673  1  0.09980000  0.94598000  0.44598000  1
  C  C1674  1  0.62205000  0.04623000  0.04623000  1
  C  C1675  1  0.61719000  0.01975000  0.01975000  1
  C  C1676  1  0.60580000  0.97136000  0.97136000  1
  C  C1677  1  0.59280000  0.90027000  0.90027000  1
  C  C1678  1  0.59560000  0.92535000  0.92535000  1
  C  C1679  1  0.59980000  0.94598000  0.94598000  1
  O  O1680  1  0.53563000  0.07636000  0.12420000  1
  O  O1681  1  0.53563000  0.57636000  0.62420000  1
  O  O1682  1  0.03563000  0.07636000  0.62420000  1
  O  O1683  1  0.03563000  0.57636000  0.12420000  1
  O  O1684  1  0.21437000  0.17364000  0.62420000  1
  O  O1685  1  0.21437000  0.67364000  0.12420000  1
  O  O1686  1  0.71437000  0.17364000  0.12420000  1
  O  O1687  1  0.71437000  0.67364000  0.62420000  1
  O  O1688  1  0.71437000  0.57636000  0.62580000  1
  O  O1689  1  0.71437000  0.07636000  0.12580000  1
  O  O1690  1  0.21437000  0.57636000  0.12580000  1
  O  O1691  1  0.21437000  0.07636000  0.62580000  1
  O  O1692  1  0.03563000  0.67364000  0.12580000  1
  O  O1693  1  0.03563000  0.17364000  0.62580000  1
  O  O1694  1  0.53563000  0.67364000  0.62580000  1
  O  O1695  1  0.53563000  0.17364000  0.12580000  1
  O  O1696  1  0.12420000  0.53563000  0.07636000  1
  O  O1697  1  0.12420000  0.03563000  0.57636000  1
  O  O1698  1  0.62420000  0.53563000  0.57636000  1
  O  O1699  1  0.62420000  0.03563000  0.07636000  1
  O  O1700  1  0.62420000  0.21437000  0.17364000  1
  O  O1701  1  0.62420000  0.71437000  0.67364000  1
  O  O1702  1  0.12420000  0.21437000  0.67364000  1
  O  O1703  1  0.12420000  0.71437000  0.17364000  1
  O  O1704  1  0.62580000  0.71437000  0.57636000  1
  O  O1705  1  0.62580000  0.21437000  0.07636000  1
  O  O1706  1  0.12580000  0.71437000  0.07636000  1
  O  O1707  1  0.12580000  0.21437000  0.57636000  1
  O  O1708  1  0.12580000  0.03563000  0.67364000  1
  O  O1709  1  0.12580000  0.53563000  0.17364000  1
  O  O1710  1  0.62580000  0.03563000  0.17364000  1
  O  O1711  1  0.62580000  0.53563000  0.67364000  1
  O  O1712  1  0.07636000  0.12420000  0.53563000  1
  O  O1713  1  0.07636000  0.62420000  0.03563000  1
  O  O1714  1  0.57636000  0.12420000  0.03563000  1
  O  O1715  1  0.57636000  0.62420000  0.53563000  1
  O  O1716  1  0.17364000  0.62420000  0.21437000  1
  O  O1717  1  0.17364000  0.12420000  0.71437000  1
  O  O1718  1  0.67364000  0.62420000  0.71437000  1
  O  O1719  1  0.67364000  0.12420000  0.21437000  1
  O  O1720  1  0.57636000  0.62580000  0.71437000  1
  O  O1721  1  0.57636000  0.12580000  0.21437000  1
  O  O1722  1  0.07636000  0.62580000  0.21437000  1
  O  O1723  1  0.07636000  0.12580000  0.71437000  1
  O  O1724  1  0.67364000  0.12580000  0.03563000  1
  O  O1725  1  0.67364000  0.62580000  0.53563000  1
  O  O1726  1  0.17364000  0.12580000  0.53563000  1
  O  O1727  1  0.17364000  0.62580000  0.03563000  1
  O  O1728  1  0.82636000  0.78563000  0.37580000  1
  O  O1729  1  0.82636000  0.28563000  0.87580000  1
  O  O1730  1  0.32636000  0.78563000  0.87580000  1
  O  O1731  1  0.32636000  0.28563000  0.37580000  1
  O  O1732  1  0.92364000  0.46437000  0.87580000  1
  O  O1733  1  0.92364000  0.96437000  0.37580000  1
  O  O1734  1  0.42364000  0.46437000  0.37580000  1
  O  O1735  1  0.42364000  0.96437000  0.87580000  1
  O  O1736  1  0.32636000  0.96437000  0.87420000  1
  O  O1737  1  0.32636000  0.46437000  0.37420000  1
  O  O1738  1  0.82636000  0.96437000  0.37420000  1
  O  O1739  1  0.82636000  0.46437000  0.87420000  1
  O  O1740  1  0.42364000  0.28563000  0.37420000  1
  O  O1741  1  0.42364000  0.78563000  0.87420000  1
  O  O1742  1  0.92364000  0.28563000  0.87420000  1
  O  O1743  1  0.92364000  0.78563000  0.37420000  1
  O  O1744  1  0.28563000  0.37420000  0.42364000  1
  O  O1745  1  0.28563000  0.87420000  0.92364000  1
  O  O1746  1  0.78563000  0.37420000  0.92364000  1
  O  O1747  1  0.78563000  0.87420000  0.42364000  1
  O  O1748  1  0.96437000  0.87420000  0.32636000  1
  O  O1749  1  0.96437000  0.37420000  0.82636000  1
  O  O1750  1  0.46437000  0.87420000  0.82636000  1
  O  O1751  1  0.46437000  0.37420000  0.32636000  1
  O  O1752  1  0.46437000  0.87580000  0.92364000  1
  O  O1753  1  0.46437000  0.37580000  0.42364000  1
  O  O1754  1  0.96437000  0.87580000  0.42364000  1
  O  O1755  1  0.96437000  0.37580000  0.92364000  1
  O  O1756  1  0.78563000  0.37580000  0.82636000  1
  O  O1757  1  0.78563000  0.87580000  0.32636000  1
  O  O1758  1  0.28563000  0.37580000  0.32636000  1
  O  O1759  1  0.28563000  0.87580000  0.82636000  1
  O  O1760  1  0.87420000  0.32636000  0.96437000  1
  O  O1761  1  0.87420000  0.82636000  0.46437000  1
  O  O1762  1  0.37420000  0.32636000  0.46437000  1
  O  O1763  1  0.37420000  0.82636000  0.96437000  1
  O  O1764  1  0.37420000  0.42364000  0.28563000  1
  O  O1765  1  0.37420000  0.92364000  0.78563000  1
  O  O1766  1  0.87420000  0.42364000  0.78563000  1
  O  O1767  1  0.87420000  0.92364000  0.28563000  1
  O  O1768  1  0.37580000  0.82636000  0.78563000  1
  O  O1769  1  0.37580000  0.32636000  0.28563000  1
  O  O1770  1  0.87580000  0.82636000  0.28563000  1
  O  O1771  1  0.87580000  0.32636000  0.78563000  1
  O  O1772  1  0.87580000  0.92364000  0.46437000  1
  O  O1773  1  0.87580000  0.42364000  0.96437000  1
  O  O1774  1  0.37580000  0.92364000  0.96437000  1
  O  O1775  1  0.37580000  0.42364000  0.46437000  1
  O  O1776  1  0.46437000  0.92364000  0.87580000  1
  O  O1777  1  0.46437000  0.42364000  0.37580000  1
  O  O1778  1  0.96437000  0.92364000  0.37580000  1
  O  O1779  1  0.96437000  0.42364000  0.87580000  1
  O  O1780  1  0.78563000  0.82636000  0.37580000  1
  O  O1781  1  0.78563000  0.32636000  0.87580000  1
  O  O1782  1  0.28563000  0.82636000  0.87580000  1
  O  O1783  1  0.28563000  0.32636000  0.37580000  1
  O  O1784  1  0.28563000  0.42364000  0.37420000  1
  O  O1785  1  0.28563000  0.92364000  0.87420000  1
  O  O1786  1  0.78563000  0.42364000  0.87420000  1
  O  O1787  1  0.78563000  0.92364000  0.37420000  1
  O  O1788  1  0.96437000  0.32636000  0.87420000  1
  O  O1789  1  0.96437000  0.82636000  0.37420000  1
  O  O1790  1  0.46437000  0.32636000  0.37420000  1
  O  O1791  1  0.46437000  0.82636000  0.87420000  1
  O  O1792  1  0.87580000  0.46437000  0.92364000  1
  O  O1793  1  0.87580000  0.96437000  0.42364000  1
  O  O1794  1  0.37580000  0.46437000  0.42364000  1
  O  O1795  1  0.37580000  0.96437000  0.92364000  1
  O  O1796  1  0.37580000  0.78563000  0.82636000  1
  O  O1797  1  0.37580000  0.28563000  0.32636000  1
  O  O1798  1  0.87580000  0.78563000  0.32636000  1
  O  O1799  1  0.87580000  0.28563000  0.82636000  1
  O  O1800  1  0.37420000  0.28563000  0.42364000  1
  O  O1801  1  0.37420000  0.78563000  0.92364000  1
  O  O1802  1  0.87420000  0.28563000  0.92364000  1
  O  O1803  1  0.87420000  0.78563000  0.42364000  1
  O  O1804  1  0.87420000  0.96437000  0.32636000  1
  O  O1805  1  0.87420000  0.46437000  0.82636000  1
  O  O1806  1  0.37420000  0.96437000  0.82636000  1
  O  O1807  1  0.37420000  0.46437000  0.32636000  1
  O  O1808  1  0.92364000  0.87580000  0.46437000  1
  O  O1809  1  0.92364000  0.37580000  0.96437000  1
  O  O1810  1  0.42364000  0.87580000  0.96437000  1
  O  O1811  1  0.42364000  0.37580000  0.46437000  1
  O  O1812  1  0.82636000  0.37580000  0.78563000  1
  O  O1813  1  0.82636000  0.87580000  0.28563000  1
  O  O1814  1  0.32636000  0.37580000  0.28563000  1
  O  O1815  1  0.32636000  0.87580000  0.78563000  1
  O  O1816  1  0.42364000  0.37420000  0.28563000  1
  O  O1817  1  0.42364000  0.87420000  0.78563000  1
  O  O1818  1  0.92364000  0.37420000  0.78563000  1
  O  O1819  1  0.92364000  0.87420000  0.28563000  1
  O  O1820  1  0.32636000  0.87420000  0.96437000  1
  O  O1821  1  0.32636000  0.37420000  0.46437000  1
  O  O1822  1  0.82636000  0.87420000  0.46437000  1
  O  O1823  1  0.82636000  0.37420000  0.96437000  1
  O  O1824  1  0.17364000  0.21437000  0.62420000  1
  O  O1825  1  0.17364000  0.71437000  0.12420000  1
  O  O1826  1  0.67364000  0.21437000  0.12420000  1
  O  O1827  1  0.67364000  0.71437000  0.62420000  1
  O  O1828  1  0.07636000  0.53563000  0.12420000  1
  O  O1829  1  0.07636000  0.03563000  0.62420000  1
  O  O1830  1  0.57636000  0.53563000  0.62420000  1
  O  O1831  1  0.57636000  0.03563000  0.12420000  1
  O  O1832  1  0.67364000  0.03563000  0.12580000  1
  O  O1833  1  0.67364000  0.53563000  0.62580000  1
  O  O1834  1  0.17364000  0.03563000  0.62580000  1
  O  O1835  1  0.17364000  0.53563000  0.12580000  1
  O  O1836  1  0.57636000  0.71437000  0.62580000  1
  O  O1837  1  0.57636000  0.21437000  0.12580000  1
  O  O1838  1  0.07636000  0.71437000  0.12580000  1
  O  O1839  1  0.07636000  0.21437000  0.62580000  1
  O  O1840  1  0.71437000  0.62580000  0.57636000  1
  O  O1841  1  0.71437000  0.12580000  0.07636000  1
  O  O1842  1  0.21437000  0.62580000  0.07636000  1
  O  O1843  1  0.21437000  0.12580000  0.57636000  1
  O  O1844  1  0.03563000  0.12580000  0.67364000  1
  O  O1845  1  0.03563000  0.62580000  0.17364000  1
  O  O1846  1  0.53563000  0.12580000  0.17364000  1
  O  O1847  1  0.53563000  0.62580000  0.67364000  1
  O  O1848  1  0.53563000  0.12420000  0.07636000  1
  O  O1849  1  0.53563000  0.62420000  0.57636000  1
  O  O1850  1  0.03563000  0.12420000  0.57636000  1
  O  O1851  1  0.03563000  0.62420000  0.07636000  1
  O  O1852  1  0.21437000  0.62420000  0.17364000  1
  O  O1853  1  0.21437000  0.12420000  0.67364000  1
  O  O1854  1  0.71437000  0.62420000  0.67364000  1
  O  O1855  1  0.71437000  0.12420000  0.17364000  1
  O  O1856  1  0.12580000  0.67364000  0.03563000  1
  O  O1857  1  0.12580000  0.17364000  0.53563000  1
  O  O1858  1  0.62580000  0.67364000  0.53563000  1
  O  O1859  1  0.62580000  0.17364000  0.03563000  1
  O  O1860  1  0.62580000  0.57636000  0.71437000  1
  O  O1861  1  0.62580000  0.07636000  0.21437000  1
  O  O1862  1  0.12580000  0.57636000  0.21437000  1
  O  O1863  1  0.12580000  0.07636000  0.71437000  1
  O  O1864  1  0.62420000  0.17364000  0.21437000  1
  O  O1865  1  0.62420000  0.67364000  0.71437000  1
  O  O1866  1  0.12420000  0.17364000  0.71437000  1
  O  O1867  1  0.12420000  0.67364000  0.21437000  1
  O  O1868  1  0.12420000  0.07636000  0.53563000  1
  O  O1869  1  0.12420000  0.57636000  0.03563000  1
  O  O1870  1  0.62420000  0.07636000  0.03563000  1
  O  O1871  1  0.62420000  0.57636000  0.53563000  1
  O  O1872  1  0.59650000  0.09650000  0.09650000  1
  O  O1873  1  0.59650000  0.59650000  0.59650000  1
  O  O1874  1  0.15350000  0.15350000  0.59650000  1
  O  O1875  1  0.15350000  0.65350000  0.09650000  1
  O  O1876  1  0.65350000  0.15350000  0.09650000  1
  O  O1877  1  0.65350000  0.59650000  0.65350000  1
  O  O1878  1  0.15350000  0.09650000  0.65350000  1
  O  O1879  1  0.09650000  0.65350000  0.15350000  1
  O  O1880  1  0.09650000  0.59650000  0.09650000  1
  O  O1881  1  0.59650000  0.15350000  0.15350000  1
  O  O1882  1  0.09650000  0.15350000  0.65350000  1
  O  O1883  1  0.65350000  0.65350000  0.59650000  1
  O  O1884  1  0.09650000  0.09650000  0.59650000  1
  O  O1885  1  0.15350000  0.59650000  0.15350000  1
  O  O1886  1  0.65350000  0.09650000  0.15350000  1
  O  O1887  1  0.59650000  0.65350000  0.65350000  1
  O  O1888  1  0.84650000  0.84650000  0.40350000  1
  O  O1889  1  0.90350000  0.40350000  0.90350000  1
  O  O1890  1  0.34650000  0.90350000  0.84650000  1
  O  O1891  1  0.34650000  0.40350000  0.34650000  1
  O  O1892  1  0.84650000  0.40350000  0.84650000  1
  O  O1893  1  0.40350000  0.34650000  0.34650000  1
  O  O1894  1  0.34650000  0.34650000  0.40350000  1
  O  O1895  1  0.90350000  0.84650000  0.34650000  1
  O  O1896  1  0.40350000  0.84650000  0.84650000  1
  O  O1897  1  0.40350000  0.90350000  0.90350000  1
  O  O1898  1  0.40350000  0.40350000  0.40350000  1
  O  O1899  1  0.84650000  0.34650000  0.90350000  1
  O  O1900  1  0.90350000  0.90350000  0.40350000  1
  O  O1901  1  0.90350000  0.34650000  0.84650000  1
  O  O1902  1  0.84650000  0.90350000  0.34650000  1
  O  O1903  1  0.34650000  0.84650000  0.90350000  1
  O  O1904  1  0.59197000  0.15803000  0.09197000  1
  O  O1905  1  0.59197000  0.65803000  0.59197000  1
  O  O1906  1  0.15803000  0.09197000  0.59197000  1
  O  O1907  1  0.65803000  0.09197000  0.09197000  1
  O  O1908  1  0.65803000  0.59197000  0.59197000  1
  O  O1909  1  0.65803000  0.65803000  0.65803000  1
  O  O1910  1  0.65803000  0.15803000  0.15803000  1
  O  O1911  1  0.15803000  0.65803000  0.15803000  1
  O  O1912  1  0.15803000  0.15803000  0.65803000  1
  O  O1913  1  0.09197000  0.59197000  0.15803000  1
  O  O1914  1  0.09197000  0.09197000  0.65803000  1
  O  O1915  1  0.59197000  0.09197000  0.15803000  1
  O  O1916  1  0.90803000  0.84197000  0.40803000  1
  O  O1917  1  0.90803000  0.34197000  0.90803000  1
  O  O1918  1  0.84197000  0.40803000  0.90803000  1
  O  O1919  1  0.34197000  0.40803000  0.40803000  1
  O  O1920  1  0.40803000  0.90803000  0.84197000  1
  O  O1921  1  0.40803000  0.40803000  0.34197000  1
  O  O1922  1  0.34197000  0.34197000  0.34197000  1
  O  O1923  1  0.34197000  0.84197000  0.84197000  1
  O  O1924  1  0.84197000  0.34197000  0.84197000  1
  O  O1925  1  0.84197000  0.84197000  0.34197000  1
  O  O1926  1  0.34197000  0.90803000  0.90803000  1
  O  O1927  1  0.84197000  0.90803000  0.40803000  1
  O  O1928  1  0.40803000  0.84197000  0.90803000  1
  O  O1929  1  0.40803000  0.34197000  0.40803000  1
  O  O1930  1  0.90803000  0.40803000  0.84197000  1
  O  O1931  1  0.90803000  0.90803000  0.34197000  1
  O  O1932  1  0.09197000  0.15803000  0.59197000  1
  O  O1933  1  0.09197000  0.65803000  0.09197000  1
  O  O1934  1  0.15803000  0.59197000  0.09197000  1
  O  O1935  1  0.59197000  0.59197000  0.65803000  1
  F  F1936  1  0.43994000  0.35776000  0.59180000  1
  F  F1937  1  0.93994000  0.35776000  0.09180000  1
  F  F1938  1  0.31006000  0.39224000  0.59180000  1
  F  F1939  1  0.81006000  0.39224000  0.09180000  1
  F  F1940  1  0.81006000  0.85776000  0.15820000  1
  F  F1941  1  0.31006000  0.85776000  0.65820000  1
  F  F1942  1  0.93994000  0.89224000  0.15820000  1
  F  F1943  1  0.43994000  0.89224000  0.65820000  1
  F  F1944  1  0.09180000  0.93994000  0.35776000  1
  F  F1945  1  0.59180000  0.93994000  0.85776000  1
  F  F1946  1  0.59180000  0.81006000  0.89224000  1
  F  F1947  1  0.09180000  0.81006000  0.39224000  1
  F  F1948  1  0.65820000  0.31006000  0.85776000  1
  F  F1949  1  0.15820000  0.31006000  0.35776000  1
  F  F1950  1  0.15820000  0.43994000  0.39224000  1
  F  F1951  1  0.65820000  0.43994000  0.89224000  1
  F  F1952  1  0.85776000  0.59180000  0.93994000  1
  F  F1953  1  0.89224000  0.59180000  0.81006000  1
  F  F1954  1  0.85776000  0.65820000  0.31006000  1
  F  F1955  1  0.85776000  0.15820000  0.81006000  1
  F  F1956  1  0.89224000  0.15820000  0.93994000  1
  F  F1957  1  0.89224000  0.65820000  0.43994000  1
  F  F1958  1  0.60776000  0.18994000  0.90820000  1
  F  F1959  1  0.10776000  0.18994000  0.40820000  1
  F  F1960  1  0.14224000  0.06006000  0.40820000  1
  F  F1961  1  0.64224000  0.06006000  0.90820000  1
  F  F1962  1  0.18994000  0.34180000  0.64224000  1
  F  F1963  1  0.18994000  0.84180000  0.14224000  1
  F  F1964  1  0.68994000  0.34180000  0.14224000  1
  F  F1965  1  0.68994000  0.84180000  0.64224000  1
  F  F1966  1  0.06006000  0.84180000  0.10776000  1
  F  F1967  1  0.06006000  0.34180000  0.60776000  1
  F  F1968  1  0.56006000  0.84180000  0.60776000  1
  F  F1969  1  0.56006000  0.34180000  0.10776000  1
  F  F1970  1  0.56006000  0.40820000  0.64224000  1
  F  F1971  1  0.06006000  0.90820000  0.64224000  1
  F  F1972  1  0.68994000  0.40820000  0.60776000  1
  F  F1973  1  0.18994000  0.90820000  0.60776000  1
  F  F1974  1  0.84180000  0.10776000  0.06006000  1
  F  F1975  1  0.84180000  0.60776000  0.56006000  1
  F  F1976  1  0.34180000  0.10776000  0.56006000  1
  F  F1977  1  0.34180000  0.60776000  0.06006000  1
  F  F1978  1  0.34180000  0.64224000  0.18994000  1
  F  F1979  1  0.34180000  0.14224000  0.68994000  1
  F  F1980  1  0.84180000  0.64224000  0.68994000  1
  F  F1981  1  0.84180000  0.14224000  0.18994000  1
  F  F1982  1  0.40820000  0.60776000  0.68994000  1
  F  F1983  1  0.90820000  0.60776000  0.18994000  1
  F  F1984  1  0.90820000  0.64224000  0.06006000  1
  F  F1985  1  0.40820000  0.64224000  0.56006000  1
  F  F1986  1  0.56006000  0.64224000  0.40820000  1
  F  F1987  1  0.06006000  0.64224000  0.90820000  1
  F  F1988  1  0.68994000  0.60776000  0.40820000  1
  F  F1989  1  0.18994000  0.60776000  0.90820000  1
  F  F1990  1  0.18994000  0.64224000  0.34180000  1
  F  F1991  1  0.18994000  0.14224000  0.84180000  1
  F  F1992  1  0.68994000  0.64224000  0.84180000  1
  F  F1993  1  0.68994000  0.14224000  0.34180000  1
  F  F1994  1  0.06006000  0.10776000  0.84180000  1
  F  F1995  1  0.06006000  0.60776000  0.34180000  1
  F  F1996  1  0.56006000  0.10776000  0.34180000  1
  F  F1997  1  0.56006000  0.60776000  0.84180000  1
  F  F1998  1  0.90820000  0.06006000  0.64224000  1
  F  F1999  1  0.40820000  0.06006000  0.14224000  1
  F  F2000  1  0.40820000  0.18994000  0.10776000  1
  F  F2001  1  0.90820000  0.18994000  0.60776000  1
  F  F2002  1  0.14224000  0.40820000  0.06006000  1
  F  F2003  1  0.64224000  0.90820000  0.06006000  1
  F  F2004  1  0.60776000  0.90820000  0.18994000  1
  F  F2005  1  0.10776000  0.40820000  0.18994000  1
  F  F2006  1  0.39224000  0.81006000  0.09180000  1
  F  F2007  1  0.89224000  0.81006000  0.59180000  1
  F  F2008  1  0.85776000  0.93994000  0.59180000  1
  F  F2009  1  0.35776000  0.93994000  0.09180000  1
  F  F2010  1  0.89224000  0.43994000  0.65820000  1
  F  F2011  1  0.39224000  0.43994000  0.15820000  1
  F  F2012  1  0.35776000  0.31006000  0.15820000  1
  F  F2013  1  0.85776000  0.31006000  0.65820000  1
  F  F2014  1  0.31006000  0.65820000  0.85776000  1
  F  F2015  1  0.31006000  0.15820000  0.35776000  1
  F  F2016  1  0.43994000  0.15820000  0.39224000  1
  F  F2017  1  0.43994000  0.65820000  0.89224000  1
  F  F2018  1  0.43994000  0.09180000  0.85776000  1
  F  F2019  1  0.43994000  0.59180000  0.35776000  1
  F  F2020  1  0.93994000  0.09180000  0.35776000  1
  F  F2021  1  0.31006000  0.59180000  0.39224000  1
  F  F2022  1  0.31006000  0.09180000  0.89224000  1
  F  F2023  1  0.81006000  0.09180000  0.39224000  1
  F  F2024  1  0.15820000  0.89224000  0.93994000  1
  F  F2025  1  0.65820000  0.89224000  0.43994000  1
  F  F2026  1  0.65820000  0.85776000  0.31006000  1
  F  F2027  1  0.15820000  0.85776000  0.81006000  1
  F  F2028  1  0.59180000  0.39224000  0.31006000  1
  F  F2029  1  0.09180000  0.39224000  0.81006000  1
  F  F2030  1  0.09180000  0.35776000  0.93994000  1
  F  F2031  1  0.59180000  0.35776000  0.43994000  1
