# generated using pymatgen
data_Zr3H50C79O16
_symmetry_space_group_name_H-M   'P 1'
_cell_length_a   28.15100000
_cell_length_b   28.17180000
_cell_length_c   39.94930000
_cell_angle_alpha   90.00000000
_cell_angle_beta   90.00000000
_cell_angle_gamma   90.00000000
_symmetry_Int_Tables_number   1
_chemical_formula_structural   Zr3H50C79O16
_chemical_formula_sum   'Zr24 H400 C632 O128'
_cell_volume   31682.36530987
_cell_formula_units_Z   8
loop_
 _symmetry_equiv_pos_site_id
 _symmetry_equiv_pos_as_xyz
  1  'x, y, z'
loop_
 _atom_site_type_symbol
 _atom_site_label
 _atom_site_symmetry_multiplicity
 _atom_site_fract_x
 _atom_site_fract_y
 _atom_site_fract_z
 _atom_site_occupancy
  Zr  Zr0  1  0.06215000  0.31187000  0.14609000  1
  Zr  Zr1  1  0.56215000  0.81187000  0.64609000  1
  Zr  Zr2  1  0.93785000  0.18813000  0.14609000  1
  Zr  Zr3  1  0.43785000  0.68813000  0.64609000  1
  Zr  Zr4  1  0.93785000  0.81187000  0.85391000  1
  Zr  Zr5  1  0.43785000  0.31187000  0.35391000  1
  Zr  Zr6  1  0.06215000  0.68813000  0.85391000  1
  Zr  Zr7  1  0.56215000  0.18813000  0.35391000  1
  Zr  Zr8  1  0.93785000  0.68813000  0.85391000  1
  Zr  Zr9  1  0.43785000  0.18813000  0.35391000  1
  Zr  Zr10  1  0.06215000  0.81187000  0.85391000  1
  Zr  Zr11  1  0.56215000  0.31187000  0.35391000  1
  Zr  Zr12  1  0.06215000  0.18813000  0.14609000  1
  Zr  Zr13  1  0.56215000  0.68813000  0.64609000  1
  Zr  Zr14  1  0.93785000  0.31187000  0.14609000  1
  Zr  Zr15  1  0.43785000  0.81187000  0.64609000  1
  Zr  Zr16  1  0.00000000  0.25000000  0.20773000  1
  Zr  Zr17  1  0.00000000  0.25000000  0.08420000  1
  Zr  Zr18  1  0.50000000  0.75000000  0.70773000  1
  Zr  Zr19  1  0.50000000  0.75000000  0.58420000  1
  Zr  Zr20  1  0.00000000  0.75000000  0.79227000  1
  Zr  Zr21  1  0.00000000  0.75000000  0.91580000  1
  Zr  Zr22  1  0.50000000  0.25000000  0.29227000  1
  Zr  Zr23  1  0.50000000  0.25000000  0.41580000  1
  H  H24  1  0.07873000  0.31510000  0.29063000  1
  H  H25  1  0.12356000  0.35340000  0.33214000  1
  H  H26  1  0.19844000  0.42138000  0.26132000  1
  H  H27  1  0.15719000  0.38003000  0.22017000  1
  H  H28  1  0.18945000  0.46076000  0.40235000  1
  H  H29  1  0.35044000  0.48902000  0.39454000  1
  H  H30  1  0.18549000  0.51622000  0.45045000  1
  H  H31  1  0.23022000  0.50122000  0.47130000  1
  H  H32  1  0.22725000  0.55225000  0.45579000  1
  H  H33  1  0.30006000  0.40856000  0.33347000  1
  H  H34  1  0.34443000  0.44212000  0.33507000  1
  H  H35  1  0.33901000  0.40065000  0.36096000  1
  H  H36  1  0.40909000  0.61140000  0.46311000  1
  H  H37  1  0.44379000  0.65903000  0.50333000  1
  H  H38  1  0.34552000  0.61560000  0.56993000  1
  H  H39  1  0.31717000  0.56095000  0.53033000  1
  H  H40  1  0.21765000  0.32145000  0.13566000  1
  H  H41  1  0.29922000  0.32181000  0.12763000  1
  H  H42  1  0.07131000  0.46726000  0.15308000  1
  H  H43  1  0.07104000  0.55049000  0.15295000  1
  H  H44  1  0.07039000  0.66077000  0.16622000  1
  H  H45  1  0.10129000  0.69769000  0.14653000  1
  H  H46  1  0.10146000  0.69769000  0.18577000  1
  H  H47  1  0.57873000  0.81510000  0.79063000  1
  H  H48  1  0.62356000  0.85340000  0.83214000  1
  H  H49  1  0.69844000  0.92138000  0.76132000  1
  H  H50  1  0.65719000  0.88003000  0.72017000  1
  H  H51  1  0.68945000  0.96076000  0.90235000  1
  H  H52  1  0.85044000  0.98902000  0.89454000  1
  H  H53  1  0.68549000  0.01622000  0.95045000  1
  H  H54  1  0.73022000  0.00122000  0.97130000  1
  H  H55  1  0.72725000  0.05225000  0.95579000  1
  H  H56  1  0.80006000  0.90856000  0.83347000  1
  H  H57  1  0.84443000  0.94212000  0.83507000  1
  H  H58  1  0.83901000  0.90065000  0.86096000  1
  H  H59  1  0.90909000  0.11140000  0.96311000  1
  H  H60  1  0.94379000  0.15903000  0.00333000  1
  H  H61  1  0.84552000  0.11560000  0.06993000  1
  H  H62  1  0.81717000  0.06095000  0.03033000  1
  H  H63  1  0.71765000  0.82145000  0.63566000  1
  H  H64  1  0.79922000  0.82181000  0.62763000  1
  H  H65  1  0.98959000  0.86151000  0.62487000  1
  H  H66  1  0.94356000  0.85217000  0.60379000  1
  H  H67  1  0.94191000  0.84839000  0.64292000  1
  H  H68  1  0.57131000  0.96726000  0.65308000  1
  H  H69  1  0.57104000  0.05049000  0.65295000  1
  H  H70  1  0.57039000  0.16077000  0.66622000  1
  H  H71  1  0.60129000  0.19769000  0.64653000  1
  H  H72  1  0.60146000  0.19769000  0.68577000  1
  H  H73  1  0.92127000  0.18490000  0.29063000  1
  H  H74  1  0.87644000  0.14660000  0.33214000  1
  H  H75  1  0.80156000  0.07862000  0.26132000  1
  H  H76  1  0.84281000  0.11997000  0.22017000  1
  H  H77  1  0.81055000  0.03924000  0.40235000  1
  H  H78  1  0.64956000  0.01098000  0.39454000  1
  H  H79  1  0.81451000  0.98378000  0.45045000  1
  H  H80  1  0.76978000  0.99878000  0.47130000  1
  H  H81  1  0.77275000  0.94775000  0.45579000  1
  H  H82  1  0.69994000  0.09144000  0.33347000  1
  H  H83  1  0.65557000  0.05788000  0.33507000  1
  H  H84  1  0.66099000  0.09935000  0.36096000  1
  H  H85  1  0.59091000  0.88860000  0.46311000  1
  H  H86  1  0.55621000  0.84097000  0.50333000  1
  H  H87  1  0.65448000  0.88440000  0.56993000  1
  H  H88  1  0.68283000  0.93905000  0.53033000  1
  H  H89  1  0.78235000  0.17855000  0.13566000  1
  H  H90  1  0.70078000  0.17819000  0.12763000  1
  H  H91  1  0.92869000  0.03274000  0.15308000  1
  H  H92  1  0.92896000  0.94951000  0.15295000  1
  H  H93  1  0.92961000  0.83923000  0.16622000  1
  H  H94  1  0.89871000  0.80231000  0.14653000  1
  H  H95  1  0.89854000  0.80231000  0.18577000  1
  H  H96  1  0.42127000  0.68490000  0.79063000  1
  H  H97  1  0.37644000  0.64660000  0.83214000  1
  H  H98  1  0.30156000  0.57862000  0.76132000  1
  H  H99  1  0.34281000  0.61997000  0.72017000  1
  H  H100  1  0.31055000  0.53924000  0.90235000  1
  H  H101  1  0.14956000  0.51098000  0.89454000  1
  H  H102  1  0.31451000  0.48378000  0.95045000  1
  H  H103  1  0.26978000  0.49878000  0.97130000  1
  H  H104  1  0.27275000  0.44775000  0.95579000  1
  H  H105  1  0.19994000  0.59144000  0.83347000  1
  H  H106  1  0.15557000  0.55788000  0.83507000  1
  H  H107  1  0.16099000  0.59935000  0.86096000  1
  H  H108  1  0.09091000  0.38860000  0.96311000  1
  H  H109  1  0.05621000  0.34097000  0.00333000  1
  H  H110  1  0.15448000  0.38440000  0.06993000  1
  H  H111  1  0.18283000  0.43905000  0.03033000  1
  H  H112  1  0.28235000  0.67855000  0.63566000  1
  H  H113  1  0.20078000  0.67819000  0.62763000  1
  H  H114  1  0.01041000  0.63849000  0.62487000  1
  H  H115  1  0.05644000  0.64783000  0.60379000  1
  H  H116  1  0.05809000  0.65161000  0.64292000  1
  H  H117  1  0.42869000  0.53274000  0.65308000  1
  H  H118  1  0.42896000  0.44951000  0.65295000  1
  H  H119  1  0.42961000  0.33923000  0.66622000  1
  H  H120  1  0.39871000  0.30231000  0.64653000  1
  H  H121  1  0.39854000  0.30231000  0.68577000  1
  H  H122  1  0.92127000  0.81510000  0.70937000  1
  H  H123  1  0.87644000  0.85340000  0.66786000  1
  H  H124  1  0.80156000  0.92138000  0.73868000  1
  H  H125  1  0.84281000  0.88003000  0.77983000  1
  H  H126  1  0.81055000  0.96076000  0.59765000  1
  H  H127  1  0.64956000  0.98902000  0.60546000  1
  H  H128  1  0.81451000  0.01622000  0.54955000  1
  H  H129  1  0.76978000  0.00122000  0.52870000  1
  H  H130  1  0.77275000  0.05225000  0.54421000  1
  H  H131  1  0.69994000  0.90856000  0.66653000  1
  H  H132  1  0.65557000  0.94212000  0.66493000  1
  H  H133  1  0.66099000  0.90065000  0.63904000  1
  H  H134  1  0.59091000  0.11140000  0.53689000  1
  H  H135  1  0.55621000  0.15903000  0.49667000  1
  H  H136  1  0.65448000  0.11560000  0.43007000  1
  H  H137  1  0.68283000  0.06095000  0.46967000  1
  H  H138  1  0.78235000  0.82145000  0.86434000  1
  H  H139  1  0.70078000  0.82181000  0.87237000  1
  H  H140  1  0.92869000  0.96726000  0.84692000  1
  H  H141  1  0.92896000  0.05049000  0.84705000  1
  H  H142  1  0.92961000  0.16077000  0.83378000  1
  H  H143  1  0.89871000  0.19769000  0.85347000  1
  H  H144  1  0.89854000  0.19769000  0.81423000  1
  H  H145  1  0.42127000  0.31510000  0.20937000  1
  H  H146  1  0.37644000  0.35340000  0.16786000  1
  H  H147  1  0.30156000  0.42138000  0.23868000  1
  H  H148  1  0.34281000  0.38003000  0.27983000  1
  H  H149  1  0.31055000  0.46076000  0.09765000  1
  H  H150  1  0.14956000  0.48902000  0.10546000  1
  H  H151  1  0.31451000  0.51622000  0.04955000  1
  H  H152  1  0.26978000  0.50122000  0.02870000  1
  H  H153  1  0.27275000  0.55225000  0.04421000  1
  H  H154  1  0.19994000  0.40856000  0.16653000  1
  H  H155  1  0.15557000  0.44212000  0.16493000  1
  H  H156  1  0.16099000  0.40065000  0.13904000  1
  H  H157  1  0.09091000  0.61140000  0.03689000  1
  H  H158  1  0.05621000  0.65903000  0.99667000  1
  H  H159  1  0.15448000  0.61560000  0.93007000  1
  H  H160  1  0.18283000  0.56095000  0.96967000  1
  H  H161  1  0.28235000  0.32145000  0.36434000  1
  H  H162  1  0.20078000  0.32181000  0.37237000  1
  H  H163  1  0.42869000  0.46726000  0.34692000  1
  H  H164  1  0.42896000  0.55049000  0.34705000  1
  H  H165  1  0.42961000  0.66077000  0.33378000  1
  H  H166  1  0.39871000  0.69769000  0.35347000  1
  H  H167  1  0.39854000  0.69769000  0.31423000  1
  H  H168  1  0.07873000  0.68490000  0.70937000  1
  H  H169  1  0.12356000  0.64660000  0.66786000  1
  H  H170  1  0.19844000  0.57862000  0.73868000  1
  H  H171  1  0.15719000  0.61997000  0.77983000  1
  H  H172  1  0.18945000  0.53924000  0.59765000  1
  H  H173  1  0.35044000  0.51098000  0.60546000  1
  H  H174  1  0.18549000  0.48378000  0.54955000  1
  H  H175  1  0.23022000  0.49878000  0.52870000  1
  H  H176  1  0.22725000  0.44775000  0.54421000  1
  H  H177  1  0.30006000  0.59144000  0.66653000  1
  H  H178  1  0.34443000  0.55788000  0.66493000  1
  H  H179  1  0.33901000  0.59935000  0.63904000  1
  H  H180  1  0.40909000  0.38860000  0.53689000  1
  H  H181  1  0.44379000  0.34097000  0.49667000  1
  H  H182  1  0.34552000  0.38440000  0.43007000  1
  H  H183  1  0.31717000  0.43905000  0.46967000  1
  H  H184  1  0.21765000  0.67855000  0.86434000  1
  H  H185  1  0.29922000  0.67819000  0.87237000  1
  H  H186  1  0.07131000  0.53274000  0.84692000  1
  H  H187  1  0.07104000  0.44951000  0.84705000  1
  H  H188  1  0.07039000  0.33923000  0.83378000  1
  H  H189  1  0.10129000  0.30231000  0.85347000  1
  H  H190  1  0.10146000  0.30231000  0.81423000  1
  H  H191  1  0.57873000  0.18490000  0.20937000  1
  H  H192  1  0.62356000  0.14660000  0.16786000  1
  H  H193  1  0.69844000  0.07862000  0.23868000  1
  H  H194  1  0.65719000  0.11997000  0.27983000  1
  H  H195  1  0.68945000  0.03924000  0.09765000  1
  H  H196  1  0.85044000  0.01098000  0.10546000  1
  H  H197  1  0.68549000  0.98378000  0.04955000  1
  H  H198  1  0.73022000  0.99878000  0.02870000  1
  H  H199  1  0.72725000  0.94775000  0.04421000  1
  H  H200  1  0.80006000  0.09144000  0.16653000  1
  H  H201  1  0.84443000  0.05788000  0.16493000  1
  H  H202  1  0.83901000  0.09935000  0.13904000  1
  H  H203  1  0.90909000  0.88860000  0.03689000  1
  H  H204  1  0.94379000  0.84097000  0.99667000  1
  H  H205  1  0.84552000  0.88440000  0.93007000  1
  H  H206  1  0.81717000  0.93905000  0.96967000  1
  H  H207  1  0.71765000  0.17855000  0.36434000  1
  H  H208  1  0.79922000  0.17819000  0.37237000  1
  H  H209  1  0.57131000  0.03274000  0.34692000  1
  H  H210  1  0.57104000  0.94951000  0.34705000  1
  H  H211  1  0.57039000  0.83923000  0.33378000  1
  H  H212  1  0.60129000  0.80231000  0.35347000  1
  H  H213  1  0.60146000  0.80231000  0.31423000  1
  H  H214  1  0.92127000  0.68490000  0.70937000  1
  H  H215  1  0.87644000  0.64660000  0.66786000  1
  H  H216  1  0.80156000  0.57862000  0.73868000  1
  H  H217  1  0.84281000  0.61997000  0.77983000  1
  H  H218  1  0.81055000  0.53924000  0.59765000  1
  H  H219  1  0.64956000  0.51098000  0.60546000  1
  H  H220  1  0.81451000  0.48378000  0.54955000  1
  H  H221  1  0.76978000  0.49878000  0.52870000  1
  H  H222  1  0.77275000  0.44775000  0.54421000  1
  H  H223  1  0.69994000  0.59144000  0.66653000  1
  H  H224  1  0.65557000  0.55788000  0.66493000  1
  H  H225  1  0.66099000  0.59935000  0.63904000  1
  H  H226  1  0.59091000  0.38860000  0.53689000  1
  H  H227  1  0.55621000  0.34097000  0.49667000  1
  H  H228  1  0.65448000  0.38440000  0.43007000  1
  H  H229  1  0.68283000  0.43905000  0.46967000  1
  H  H230  1  0.78235000  0.67855000  0.86434000  1
  H  H231  1  0.70078000  0.67819000  0.87237000  1
  H  H232  1  0.51041000  0.63849000  0.87513000  1
  H  H233  1  0.55644000  0.64783000  0.89621000  1
  H  H234  1  0.55809000  0.65161000  0.85708000  1
  H  H235  1  0.92869000  0.53274000  0.84692000  1
  H  H236  1  0.92896000  0.44951000  0.84705000  1
  H  H237  1  0.92961000  0.33923000  0.83378000  1
  H  H238  1  0.89871000  0.30231000  0.85347000  1
  H  H239  1  0.89854000  0.30231000  0.81423000  1
  H  H240  1  0.42127000  0.18490000  0.20937000  1
  H  H241  1  0.37644000  0.14660000  0.16786000  1
  H  H242  1  0.30156000  0.07862000  0.23868000  1
  H  H243  1  0.34281000  0.11997000  0.27983000  1
  H  H244  1  0.31055000  0.03924000  0.09765000  1
  H  H245  1  0.14956000  0.01098000  0.10546000  1
  H  H246  1  0.31451000  0.98378000  0.04955000  1
  H  H247  1  0.26978000  0.99878000  0.02870000  1
  H  H248  1  0.27275000  0.94775000  0.04421000  1
  H  H249  1  0.19994000  0.09144000  0.16653000  1
  H  H250  1  0.15557000  0.05788000  0.16493000  1
  H  H251  1  0.16099000  0.09935000  0.13904000  1
  H  H252  1  0.09091000  0.88860000  0.03689000  1
  H  H253  1  0.05621000  0.84097000  0.99667000  1
  H  H254  1  0.15448000  0.88440000  0.93007000  1
  H  H255  1  0.18283000  0.93905000  0.96967000  1
  H  H256  1  0.28235000  0.17855000  0.36434000  1
  H  H257  1  0.20078000  0.17819000  0.37237000  1
  H  H258  1  0.01041000  0.13849000  0.37513000  1
  H  H259  1  0.05644000  0.14783000  0.39621000  1
  H  H260  1  0.05809000  0.15161000  0.35708000  1
  H  H261  1  0.42869000  0.03274000  0.34692000  1
  H  H262  1  0.42896000  0.94951000  0.34705000  1
  H  H263  1  0.42961000  0.83923000  0.33378000  1
  H  H264  1  0.39871000  0.80231000  0.35347000  1
  H  H265  1  0.39854000  0.80231000  0.31423000  1
  H  H266  1  0.07873000  0.81510000  0.70937000  1
  H  H267  1  0.12356000  0.85340000  0.66786000  1
  H  H268  1  0.19844000  0.92138000  0.73868000  1
  H  H269  1  0.15719000  0.88003000  0.77983000  1
  H  H270  1  0.18945000  0.96076000  0.59765000  1
  H  H271  1  0.35044000  0.98902000  0.60546000  1
  H  H272  1  0.18549000  0.01622000  0.54955000  1
  H  H273  1  0.23022000  0.00122000  0.52870000  1
  H  H274  1  0.22725000  0.05225000  0.54421000  1
  H  H275  1  0.30006000  0.90856000  0.66653000  1
  H  H276  1  0.34443000  0.94212000  0.66493000  1
  H  H277  1  0.33901000  0.90065000  0.63904000  1
  H  H278  1  0.40909000  0.11140000  0.53689000  1
  H  H279  1  0.44379000  0.15903000  0.49667000  1
  H  H280  1  0.34552000  0.11560000  0.43007000  1
  H  H281  1  0.31717000  0.06095000  0.46967000  1
  H  H282  1  0.21765000  0.82145000  0.86434000  1
  H  H283  1  0.29922000  0.82181000  0.87237000  1
  H  H284  1  0.48959000  0.86151000  0.87513000  1
  H  H285  1  0.44356000  0.85217000  0.89621000  1
  H  H286  1  0.44191000  0.84839000  0.85708000  1
  H  H287  1  0.07131000  0.96726000  0.84692000  1
  H  H288  1  0.07104000  0.05049000  0.84705000  1
  H  H289  1  0.07039000  0.16077000  0.83378000  1
  H  H290  1  0.10129000  0.19769000  0.85347000  1
  H  H291  1  0.10146000  0.19769000  0.81423000  1
  H  H292  1  0.57873000  0.31510000  0.20937000  1
  H  H293  1  0.62356000  0.35340000  0.16786000  1
  H  H294  1  0.69844000  0.42138000  0.23868000  1
  H  H295  1  0.65719000  0.38003000  0.27983000  1
  H  H296  1  0.68945000  0.46076000  0.09765000  1
  H  H297  1  0.85044000  0.48902000  0.10546000  1
  H  H298  1  0.68549000  0.51622000  0.04955000  1
  H  H299  1  0.73022000  0.50122000  0.02870000  1
  H  H300  1  0.72725000  0.55225000  0.04421000  1
  H  H301  1  0.80006000  0.40856000  0.16653000  1
  H  H302  1  0.84443000  0.44212000  0.16493000  1
  H  H303  1  0.83901000  0.40065000  0.13904000  1
  H  H304  1  0.90909000  0.61140000  0.03689000  1
  H  H305  1  0.94379000  0.65903000  0.99667000  1
  H  H306  1  0.84552000  0.61560000  0.93007000  1
  H  H307  1  0.81717000  0.56095000  0.96967000  1
  H  H308  1  0.71765000  0.32145000  0.36434000  1
  H  H309  1  0.79922000  0.32181000  0.37237000  1
  H  H310  1  0.98959000  0.36151000  0.37513000  1
  H  H311  1  0.94356000  0.35217000  0.39621000  1
  H  H312  1  0.94191000  0.34839000  0.35708000  1
  H  H313  1  0.57131000  0.46726000  0.34692000  1
  H  H314  1  0.57104000  0.55049000  0.34705000  1
  H  H315  1  0.57039000  0.66077000  0.33378000  1
  H  H316  1  0.60129000  0.69769000  0.35347000  1
  H  H317  1  0.60146000  0.69769000  0.31423000  1
  H  H318  1  0.07873000  0.18490000  0.29063000  1
  H  H319  1  0.12356000  0.14660000  0.33214000  1
  H  H320  1  0.19844000  0.07862000  0.26132000  1
  H  H321  1  0.15719000  0.11997000  0.22017000  1
  H  H322  1  0.18945000  0.03924000  0.40235000  1
  H  H323  1  0.35044000  0.01098000  0.39454000  1
  H  H324  1  0.18549000  0.98378000  0.45045000  1
  H  H325  1  0.23022000  0.99878000  0.47130000  1
  H  H326  1  0.22725000  0.94775000  0.45579000  1
  H  H327  1  0.30006000  0.09144000  0.33347000  1
  H  H328  1  0.34443000  0.05788000  0.33507000  1
  H  H329  1  0.33901000  0.09935000  0.36096000  1
  H  H330  1  0.40909000  0.88860000  0.46311000  1
  H  H331  1  0.44379000  0.84097000  0.50333000  1
  H  H332  1  0.34552000  0.88440000  0.56993000  1
  H  H333  1  0.31717000  0.93905000  0.53033000  1
  H  H334  1  0.21765000  0.17855000  0.13566000  1
  H  H335  1  0.29922000  0.17819000  0.12763000  1
  H  H336  1  0.48959000  0.13849000  0.12487000  1
  H  H337  1  0.44356000  0.14783000  0.10379000  1
  H  H338  1  0.44191000  0.15161000  0.14292000  1
  H  H339  1  0.07131000  0.03274000  0.15308000  1
  H  H340  1  0.07104000  0.94951000  0.15295000  1
  H  H341  1  0.07039000  0.83923000  0.16622000  1
  H  H342  1  0.10129000  0.80231000  0.14653000  1
  H  H343  1  0.10146000  0.80231000  0.18577000  1
  H  H344  1  0.57873000  0.68490000  0.79063000  1
  H  H345  1  0.62356000  0.64660000  0.83214000  1
  H  H346  1  0.69844000  0.57862000  0.76132000  1
  H  H347  1  0.65719000  0.61997000  0.72017000  1
  H  H348  1  0.68945000  0.53924000  0.90235000  1
  H  H349  1  0.85044000  0.51098000  0.89454000  1
  H  H350  1  0.68549000  0.48378000  0.95045000  1
  H  H351  1  0.73022000  0.49878000  0.97130000  1
  H  H352  1  0.72725000  0.44775000  0.95579000  1
  H  H353  1  0.80006000  0.59144000  0.83347000  1
  H  H354  1  0.84443000  0.55788000  0.83507000  1
  H  H355  1  0.83901000  0.59935000  0.86096000  1
  H  H356  1  0.90909000  0.38860000  0.96311000  1
  H  H357  1  0.94379000  0.34097000  0.00333000  1
  H  H358  1  0.84552000  0.38440000  0.06993000  1
  H  H359  1  0.81717000  0.43905000  0.03033000  1
  H  H360  1  0.71765000  0.67855000  0.63566000  1
  H  H361  1  0.79922000  0.67819000  0.62763000  1
  H  H362  1  0.57131000  0.53274000  0.65308000  1
  H  H363  1  0.57104000  0.44951000  0.65295000  1
  H  H364  1  0.57039000  0.33923000  0.66622000  1
  H  H365  1  0.60129000  0.30231000  0.64653000  1
  H  H366  1  0.60146000  0.30231000  0.68577000  1
  H  H367  1  0.92127000  0.31510000  0.29063000  1
  H  H368  1  0.87644000  0.35340000  0.33214000  1
  H  H369  1  0.80156000  0.42138000  0.26132000  1
  H  H370  1  0.84281000  0.38003000  0.22017000  1
  H  H371  1  0.81055000  0.46076000  0.40235000  1
  H  H372  1  0.64956000  0.48902000  0.39454000  1
  H  H373  1  0.81451000  0.51622000  0.45045000  1
  H  H374  1  0.76978000  0.50122000  0.47130000  1
  H  H375  1  0.77275000  0.55225000  0.45579000  1
  H  H376  1  0.69994000  0.40856000  0.33347000  1
  H  H377  1  0.65557000  0.44212000  0.33507000  1
  H  H378  1  0.66099000  0.40065000  0.36096000  1
  H  H379  1  0.59091000  0.61140000  0.46311000  1
  H  H380  1  0.55621000  0.65903000  0.50333000  1
  H  H381  1  0.65448000  0.61560000  0.56993000  1
  H  H382  1  0.68283000  0.56095000  0.53033000  1
  H  H383  1  0.78235000  0.32145000  0.13566000  1
  H  H384  1  0.70078000  0.32181000  0.12763000  1
  H  H385  1  0.51041000  0.36151000  0.12487000  1
  H  H386  1  0.55644000  0.35217000  0.10379000  1
  H  H387  1  0.55809000  0.34839000  0.14292000  1
  H  H388  1  0.92869000  0.46726000  0.15308000  1
  H  H389  1  0.92896000  0.55049000  0.15295000  1
  H  H390  1  0.92961000  0.66077000  0.16622000  1
  H  H391  1  0.89871000  0.69769000  0.14653000  1
  H  H392  1  0.89854000  0.69769000  0.18577000  1
  H  H393  1  0.42127000  0.81510000  0.79063000  1
  H  H394  1  0.37644000  0.85340000  0.83214000  1
  H  H395  1  0.30156000  0.92138000  0.76132000  1
  H  H396  1  0.34281000  0.88003000  0.72017000  1
  H  H397  1  0.31055000  0.96076000  0.90235000  1
  H  H398  1  0.14956000  0.98902000  0.89454000  1
  H  H399  1  0.31451000  0.01622000  0.95045000  1
  H  H400  1  0.26978000  0.00122000  0.97130000  1
  H  H401  1  0.27275000  0.05225000  0.95579000  1
  H  H402  1  0.19994000  0.90856000  0.83347000  1
  H  H403  1  0.15557000  0.94212000  0.83507000  1
  H  H404  1  0.16099000  0.90065000  0.86096000  1
  H  H405  1  0.09091000  0.11140000  0.96311000  1
  H  H406  1  0.05621000  0.15903000  0.00333000  1
  H  H407  1  0.15448000  0.11560000  0.06993000  1
  H  H408  1  0.18283000  0.06095000  0.03033000  1
  H  H409  1  0.28235000  0.82145000  0.63566000  1
  H  H410  1  0.20078000  0.82181000  0.62763000  1
  H  H411  1  0.42869000  0.96726000  0.65308000  1
  H  H412  1  0.42896000  0.05049000  0.65295000  1
  H  H413  1  0.42961000  0.16077000  0.66622000  1
  H  H414  1  0.39871000  0.19769000  0.64653000  1
  H  H415  1  0.39854000  0.19769000  0.68577000  1
  H  H416  1  0.54766000  0.82634000  0.87675000  1
  H  H417  1  0.45234000  0.67366000  0.87675000  1
  H  H418  1  0.45234000  0.32634000  0.12325000  1
  H  H419  1  0.54766000  0.17366000  0.12325000  1
  H  H420  1  0.95234000  0.67366000  0.62325000  1
  H  H421  1  0.04766000  0.82634000  0.62325000  1
  H  H422  1  0.95234000  0.17366000  0.37675000  1
  H  H423  1  0.04766000  0.32634000  0.37675000  1
  C  C424  1  0.08160000  0.32680000  0.22535000  1
  C  C425  1  0.11210000  0.34790000  0.25120000  1
  C  C426  1  0.10280000  0.33620000  0.28500000  1
  C  C427  1  0.13110000  0.35750000  0.30970000  1
  C  C428  1  0.17020000  0.38470000  0.30080000  1
  C  C429  1  0.17650000  0.39810000  0.26710000  1
  C  C430  1  0.14960000  0.37580000  0.24260000  1
  C  C431  1  0.19760000  0.41100000  0.32500000  1
  C  C432  1  0.21670000  0.42590000  0.34910000  1
  C  C433  1  0.24680000  0.44950000  0.37280000  1
  C  C434  1  0.22110000  0.46910000  0.39920000  1
  C  C435  1  0.24300000  0.50150000  0.42080000  1
  C  C436  1  0.29210000  0.50430000  0.42090000  1
  C  C437  1  0.31780000  0.48410000  0.39550000  1
  C  C438  1  0.29600000  0.45640000  0.37120000  1
  C  C439  1  0.21930000  0.51940000  0.45250000  1
  C  C440  1  0.32220000  0.42410000  0.34810000  1
  C  C441  1  0.31570000  0.53070000  0.44750000  1
  C  C442  1  0.33640000  0.55550000  0.46550000  1
  C  C443  1  0.35750000  0.58460000  0.49190000  1
  C  C444  1  0.39660000  0.61200000  0.48460000  1
  C  C445  1  0.41770000  0.64030000  0.50870000  1
  C  C446  1  0.39880000  0.64030000  0.54140000  1
  C  C447  1  0.35960000  0.61340000  0.54890000  1
  C  C448  1  0.34070000  0.58260000  0.52460000  1
  C  C449  1  0.42210000  0.66990000  0.56815000  1
  C  C450  1  0.23420000  0.29290000  0.13460000  1
  C  C451  1  0.28310000  0.29310000  0.12960000  1
  C  C452  1  0.47340000  0.29190000  0.12120000  1
  C  C453  1  0.04280000  0.48390000  0.15320000  1
  C  C454  1  0.04270000  0.53380000  0.15460000  1
  C  C455  1  0.04130000  0.72710000  0.16630000  1
  C  C456  1  0.08230000  0.69270000  0.16620000  1
  C  C457  1  0.58160000  0.82680000  0.72535000  1
  C  C458  1  0.61210000  0.84790000  0.75120000  1
  C  C459  1  0.60280000  0.83620000  0.78500000  1
  C  C460  1  0.63110000  0.85750000  0.80970000  1
  C  C461  1  0.67020000  0.88470000  0.80080000  1
  C  C462  1  0.67650000  0.89810000  0.76710000  1
  C  C463  1  0.64960000  0.87580000  0.74260000  1
  C  C464  1  0.69760000  0.91100000  0.82500000  1
  C  C465  1  0.71670000  0.92590000  0.84910000  1
  C  C466  1  0.74680000  0.94950000  0.87280000  1
  C  C467  1  0.72110000  0.96910000  0.89920000  1
  C  C468  1  0.74300000  0.00150000  0.92080000  1
  C  C469  1  0.79210000  0.00430000  0.92090000  1
  C  C470  1  0.81780000  0.98410000  0.89550000  1
  C  C471  1  0.79600000  0.95640000  0.87120000  1
  C  C472  1  0.71930000  0.01940000  0.95250000  1
  C  C473  1  0.82220000  0.92410000  0.84810000  1
  C  C474  1  0.81570000  0.03070000  0.94750000  1
  C  C475  1  0.83640000  0.05550000  0.96550000  1
  C  C476  1  0.85750000  0.08460000  0.99190000  1
  C  C477  1  0.89660000  0.11200000  0.98460000  1
  C  C478  1  0.91770000  0.14030000  0.00870000  1
  C  C479  1  0.89880000  0.14030000  0.04140000  1
  C  C480  1  0.85960000  0.11340000  0.04890000  1
  C  C481  1  0.84070000  0.08260000  0.02460000  1
  C  C482  1  0.92210000  0.16990000  0.06815000  1
  C  C483  1  0.73420000  0.79290000  0.63460000  1
  C  C484  1  0.78310000  0.79310000  0.62960000  1
  C  C485  1  0.97340000  0.79190000  0.62120000  1
  C  C486  1  0.96100000  0.84300000  0.62340000  1
  C  C487  1  0.54280000  0.98390000  0.65320000  1
  C  C488  1  0.54270000  0.03380000  0.65460000  1
  C  C489  1  0.54130000  0.22710000  0.66630000  1
  C  C490  1  0.58230000  0.19270000  0.66620000  1
  C  C491  1  0.91840000  0.17320000  0.22535000  1
  C  C492  1  0.88790000  0.15210000  0.25120000  1
  C  C493  1  0.89720000  0.16380000  0.28500000  1
  C  C494  1  0.86890000  0.14250000  0.30970000  1
  C  C495  1  0.82980000  0.11530000  0.30080000  1
  C  C496  1  0.82350000  0.10190000  0.26710000  1
  C  C497  1  0.85040000  0.12420000  0.24260000  1
  C  C498  1  0.80240000  0.08900000  0.32500000  1
  C  C499  1  0.78330000  0.07410000  0.34910000  1
  C  C500  1  0.75320000  0.05050000  0.37280000  1
  C  C501  1  0.77890000  0.03090000  0.39920000  1
  C  C502  1  0.75700000  0.99850000  0.42080000  1
  C  C503  1  0.70790000  0.99570000  0.42090000  1
  C  C504  1  0.68220000  0.01590000  0.39550000  1
  C  C505  1  0.70400000  0.04360000  0.37120000  1
  C  C506  1  0.78070000  0.98060000  0.45250000  1
  C  C507  1  0.67780000  0.07590000  0.34810000  1
  C  C508  1  0.68430000  0.96930000  0.44750000  1
  C  C509  1  0.66360000  0.94450000  0.46550000  1
  C  C510  1  0.64250000  0.91540000  0.49190000  1
  C  C511  1  0.60340000  0.88800000  0.48460000  1
  C  C512  1  0.58230000  0.85970000  0.50870000  1
  C  C513  1  0.60120000  0.85970000  0.54140000  1
  C  C514  1  0.64040000  0.88660000  0.54890000  1
  C  C515  1  0.65930000  0.91740000  0.52460000  1
  C  C516  1  0.57790000  0.83010000  0.56815000  1
  C  C517  1  0.76580000  0.20710000  0.13460000  1
  C  C518  1  0.71690000  0.20690000  0.12960000  1
  C  C519  1  0.52660000  0.20810000  0.12120000  1
  C  C520  1  0.95720000  0.01610000  0.15320000  1
  C  C521  1  0.95730000  0.96620000  0.15460000  1
  C  C522  1  0.95870000  0.77290000  0.16630000  1
  C  C523  1  0.91770000  0.80730000  0.16620000  1
  C  C524  1  0.41840000  0.67320000  0.72535000  1
  C  C525  1  0.38790000  0.65210000  0.75120000  1
  C  C526  1  0.39720000  0.66380000  0.78500000  1
  C  C527  1  0.36890000  0.64250000  0.80970000  1
  C  C528  1  0.32980000  0.61530000  0.80080000  1
  C  C529  1  0.32350000  0.60190000  0.76710000  1
  C  C530  1  0.35040000  0.62420000  0.74260000  1
  C  C531  1  0.30240000  0.58900000  0.82500000  1
  C  C532  1  0.28330000  0.57410000  0.84910000  1
  C  C533  1  0.25320000  0.55050000  0.87280000  1
  C  C534  1  0.27890000  0.53090000  0.89920000  1
  C  C535  1  0.25700000  0.49850000  0.92080000  1
  C  C536  1  0.20790000  0.49570000  0.92090000  1
  C  C537  1  0.18220000  0.51590000  0.89550000  1
  C  C538  1  0.20400000  0.54360000  0.87120000  1
  C  C539  1  0.28070000  0.48060000  0.95250000  1
  C  C540  1  0.17780000  0.57590000  0.84810000  1
  C  C541  1  0.18430000  0.46930000  0.94750000  1
  C  C542  1  0.16360000  0.44450000  0.96550000  1
  C  C543  1  0.14250000  0.41540000  0.99190000  1
  C  C544  1  0.10340000  0.38800000  0.98460000  1
  C  C545  1  0.08230000  0.35970000  0.00870000  1
  C  C546  1  0.10120000  0.35970000  0.04140000  1
  C  C547  1  0.14040000  0.38660000  0.04890000  1
  C  C548  1  0.15930000  0.41740000  0.02460000  1
  C  C549  1  0.07790000  0.33010000  0.06815000  1
  C  C550  1  0.26580000  0.70710000  0.63460000  1
  C  C551  1  0.21690000  0.70690000  0.62960000  1
  C  C552  1  0.02660000  0.70810000  0.62120000  1
  C  C553  1  0.03900000  0.65700000  0.62340000  1
  C  C554  1  0.45720000  0.51610000  0.65320000  1
  C  C555  1  0.45730000  0.46620000  0.65460000  1
  C  C556  1  0.45870000  0.27290000  0.66630000  1
  C  C557  1  0.41770000  0.30730000  0.66620000  1
  C  C558  1  0.91840000  0.82680000  0.77465000  1
  C  C559  1  0.88790000  0.84790000  0.74880000  1
  C  C560  1  0.89720000  0.83620000  0.71500000  1
  C  C561  1  0.86890000  0.85750000  0.69030000  1
  C  C562  1  0.82980000  0.88470000  0.69920000  1
  C  C563  1  0.82350000  0.89810000  0.73290000  1
  C  C564  1  0.85040000  0.87580000  0.75740000  1
  C  C565  1  0.80240000  0.91100000  0.67500000  1
  C  C566  1  0.78330000  0.92590000  0.65090000  1
  C  C567  1  0.75320000  0.94950000  0.62720000  1
  C  C568  1  0.77890000  0.96910000  0.60080000  1
  C  C569  1  0.75700000  0.00150000  0.57920000  1
  C  C570  1  0.70790000  0.00430000  0.57910000  1
  C  C571  1  0.68220000  0.98410000  0.60450000  1
  C  C572  1  0.70400000  0.95640000  0.62880000  1
  C  C573  1  0.78070000  0.01940000  0.54750000  1
  C  C574  1  0.67780000  0.92410000  0.65190000  1
  C  C575  1  0.68430000  0.03070000  0.55250000  1
  C  C576  1  0.66360000  0.05550000  0.53450000  1
  C  C577  1  0.64250000  0.08460000  0.50810000  1
  C  C578  1  0.60340000  0.11200000  0.51540000  1
  C  C579  1  0.58230000  0.14030000  0.49130000  1
  C  C580  1  0.60120000  0.14030000  0.45860000  1
  C  C581  1  0.64040000  0.11340000  0.45110000  1
  C  C582  1  0.65930000  0.08260000  0.47540000  1
  C  C583  1  0.57790000  0.16990000  0.43185000  1
  C  C584  1  0.76580000  0.79290000  0.86540000  1
  C  C585  1  0.71690000  0.79310000  0.87040000  1
  C  C586  1  0.52660000  0.79190000  0.87880000  1
  C  C587  1  0.95720000  0.98390000  0.84680000  1
  C  C588  1  0.95730000  0.03380000  0.84540000  1
  C  C589  1  0.95870000  0.22710000  0.83370000  1
  C  C590  1  0.91770000  0.19270000  0.83380000  1
  C  C591  1  0.41840000  0.32680000  0.27465000  1
  C  C592  1  0.38790000  0.34790000  0.24880000  1
  C  C593  1  0.39720000  0.33620000  0.21500000  1
  C  C594  1  0.36890000  0.35750000  0.19030000  1
  C  C595  1  0.32980000  0.38470000  0.19920000  1
  C  C596  1  0.32350000  0.39810000  0.23290000  1
  C  C597  1  0.35040000  0.37580000  0.25740000  1
  C  C598  1  0.30240000  0.41100000  0.17500000  1
  C  C599  1  0.28330000  0.42590000  0.15090000  1
  C  C600  1  0.25320000  0.44950000  0.12720000  1
  C  C601  1  0.27890000  0.46910000  0.10080000  1
  C  C602  1  0.25700000  0.50150000  0.07920000  1
  C  C603  1  0.20790000  0.50430000  0.07910000  1
  C  C604  1  0.18220000  0.48410000  0.10450000  1
  C  C605  1  0.20400000  0.45640000  0.12880000  1
  C  C606  1  0.28070000  0.51940000  0.04750000  1
  C  C607  1  0.17780000  0.42410000  0.15190000  1
  C  C608  1  0.18430000  0.53070000  0.05250000  1
  C  C609  1  0.16360000  0.55550000  0.03450000  1
  C  C610  1  0.14250000  0.58460000  0.00810000  1
  C  C611  1  0.10340000  0.61200000  0.01540000  1
  C  C612  1  0.08230000  0.64030000  0.99130000  1
  C  C613  1  0.10120000  0.64030000  0.95860000  1
  C  C614  1  0.14040000  0.61340000  0.95110000  1
  C  C615  1  0.15930000  0.58260000  0.97540000  1
  C  C616  1  0.07790000  0.66990000  0.93185000  1
  C  C617  1  0.26580000  0.29290000  0.36540000  1
  C  C618  1  0.21690000  0.29310000  0.37040000  1
  C  C619  1  0.02660000  0.29190000  0.37880000  1
  C  C620  1  0.45720000  0.48390000  0.34680000  1
  C  C621  1  0.45730000  0.53380000  0.34540000  1
  C  C622  1  0.45870000  0.72710000  0.33370000  1
  C  C623  1  0.41770000  0.69270000  0.33380000  1
  C  C624  1  0.08160000  0.67320000  0.77465000  1
  C  C625  1  0.11210000  0.65210000  0.74880000  1
  C  C626  1  0.10280000  0.66380000  0.71500000  1
  C  C627  1  0.13110000  0.64250000  0.69030000  1
  C  C628  1  0.17020000  0.61530000  0.69920000  1
  C  C629  1  0.17650000  0.60190000  0.73290000  1
  C  C630  1  0.14960000  0.62420000  0.75740000  1
  C  C631  1  0.19760000  0.58900000  0.67500000  1
  C  C632  1  0.21670000  0.57410000  0.65090000  1
  C  C633  1  0.24680000  0.55050000  0.62720000  1
  C  C634  1  0.22110000  0.53090000  0.60080000  1
  C  C635  1  0.24300000  0.49850000  0.57920000  1
  C  C636  1  0.29210000  0.49570000  0.57910000  1
  C  C637  1  0.31780000  0.51590000  0.60450000  1
  C  C638  1  0.29600000  0.54360000  0.62880000  1
  C  C639  1  0.21930000  0.48060000  0.54750000  1
  C  C640  1  0.32220000  0.57590000  0.65190000  1
  C  C641  1  0.31570000  0.46930000  0.55250000  1
  C  C642  1  0.33640000  0.44450000  0.53450000  1
  C  C643  1  0.35750000  0.41540000  0.50810000  1
  C  C644  1  0.39660000  0.38800000  0.51540000  1
  C  C645  1  0.41770000  0.35970000  0.49130000  1
  C  C646  1  0.39880000  0.35970000  0.45860000  1
  C  C647  1  0.35960000  0.38660000  0.45110000  1
  C  C648  1  0.34070000  0.41740000  0.47540000  1
  C  C649  1  0.42210000  0.33010000  0.43185000  1
  C  C650  1  0.23420000  0.70710000  0.86540000  1
  C  C651  1  0.28310000  0.70690000  0.87040000  1
  C  C652  1  0.47340000  0.70810000  0.87880000  1
  C  C653  1  0.04280000  0.51610000  0.84680000  1
  C  C654  1  0.04270000  0.46620000  0.84540000  1
  C  C655  1  0.04130000  0.27290000  0.83370000  1
  C  C656  1  0.08230000  0.30730000  0.83380000  1
  C  C657  1  0.58160000  0.17320000  0.27465000  1
  C  C658  1  0.61210000  0.15210000  0.24880000  1
  C  C659  1  0.60280000  0.16380000  0.21500000  1
  C  C660  1  0.63110000  0.14250000  0.19030000  1
  C  C661  1  0.67020000  0.11530000  0.19920000  1
  C  C662  1  0.67650000  0.10190000  0.23290000  1
  C  C663  1  0.64960000  0.12420000  0.25740000  1
  C  C664  1  0.69760000  0.08900000  0.17500000  1
  C  C665  1  0.71670000  0.07410000  0.15090000  1
  C  C666  1  0.74680000  0.05050000  0.12720000  1
  C  C667  1  0.72110000  0.03090000  0.10080000  1
  C  C668  1  0.74300000  0.99850000  0.07920000  1
  C  C669  1  0.79210000  0.99570000  0.07910000  1
  C  C670  1  0.81780000  0.01590000  0.10450000  1
  C  C671  1  0.79600000  0.04360000  0.12880000  1
  C  C672  1  0.71930000  0.98060000  0.04750000  1
  C  C673  1  0.82220000  0.07590000  0.15190000  1
  C  C674  1  0.81570000  0.96930000  0.05250000  1
  C  C675  1  0.83640000  0.94450000  0.03450000  1
  C  C676  1  0.85750000  0.91540000  0.00810000  1
  C  C677  1  0.89660000  0.88800000  0.01540000  1
  C  C678  1  0.91770000  0.85970000  0.99130000  1
  C  C679  1  0.89880000  0.85970000  0.95860000  1
  C  C680  1  0.85960000  0.88660000  0.95110000  1
  C  C681  1  0.84070000  0.91740000  0.97540000  1
  C  C682  1  0.92210000  0.83010000  0.93185000  1
  C  C683  1  0.73420000  0.20710000  0.36540000  1
  C  C684  1  0.78310000  0.20690000  0.37040000  1
  C  C685  1  0.97340000  0.20810000  0.37880000  1
  C  C686  1  0.54280000  0.01610000  0.34680000  1
  C  C687  1  0.54270000  0.96620000  0.34540000  1
  C  C688  1  0.54130000  0.77290000  0.33370000  1
  C  C689  1  0.58230000  0.80730000  0.33380000  1
  C  C690  1  0.91840000  0.67320000  0.77465000  1
  C  C691  1  0.88790000  0.65210000  0.74880000  1
  C  C692  1  0.89720000  0.66380000  0.71500000  1
  C  C693  1  0.86890000  0.64250000  0.69030000  1
  C  C694  1  0.82980000  0.61530000  0.69920000  1
  C  C695  1  0.82350000  0.60190000  0.73290000  1
  C  C696  1  0.85040000  0.62420000  0.75740000  1
  C  C697  1  0.80240000  0.58900000  0.67500000  1
  C  C698  1  0.78330000  0.57410000  0.65090000  1
  C  C699  1  0.75320000  0.55050000  0.62720000  1
  C  C700  1  0.77890000  0.53090000  0.60080000  1
  C  C701  1  0.75700000  0.49850000  0.57920000  1
  C  C702  1  0.70790000  0.49570000  0.57910000  1
  C  C703  1  0.68220000  0.51590000  0.60450000  1
  C  C704  1  0.70400000  0.54360000  0.62880000  1
  C  C705  1  0.78070000  0.48060000  0.54750000  1
  C  C706  1  0.67780000  0.57590000  0.65190000  1
  C  C707  1  0.68430000  0.46930000  0.55250000  1
  C  C708  1  0.66360000  0.44450000  0.53450000  1
  C  C709  1  0.64250000  0.41540000  0.50810000  1
  C  C710  1  0.60340000  0.38800000  0.51540000  1
  C  C711  1  0.58230000  0.35970000  0.49130000  1
  C  C712  1  0.60120000  0.35970000  0.45860000  1
  C  C713  1  0.64040000  0.38660000  0.45110000  1
  C  C714  1  0.65930000  0.41740000  0.47540000  1
  C  C715  1  0.57790000  0.33010000  0.43185000  1
  C  C716  1  0.76580000  0.70710000  0.86540000  1
  C  C717  1  0.71690000  0.70690000  0.87040000  1
  C  C718  1  0.52660000  0.70810000  0.87880000  1
  C  C719  1  0.53900000  0.65700000  0.87660000  1
  C  C720  1  0.95720000  0.51610000  0.84680000  1
  C  C721  1  0.95730000  0.46620000  0.84540000  1
  C  C722  1  0.95870000  0.27290000  0.83370000  1
  C  C723  1  0.91770000  0.30730000  0.83380000  1
  C  C724  1  0.41840000  0.17320000  0.27465000  1
  C  C725  1  0.38790000  0.15210000  0.24880000  1
  C  C726  1  0.39720000  0.16380000  0.21500000  1
  C  C727  1  0.36890000  0.14250000  0.19030000  1
  C  C728  1  0.32980000  0.11530000  0.19920000  1
  C  C729  1  0.32350000  0.10190000  0.23290000  1
  C  C730  1  0.35040000  0.12420000  0.25740000  1
  C  C731  1  0.30240000  0.08900000  0.17500000  1
  C  C732  1  0.28330000  0.07410000  0.15090000  1
  C  C733  1  0.25320000  0.05050000  0.12720000  1
  C  C734  1  0.27890000  0.03090000  0.10080000  1
  C  C735  1  0.25700000  0.99850000  0.07920000  1
  C  C736  1  0.20790000  0.99570000  0.07910000  1
  C  C737  1  0.18220000  0.01590000  0.10450000  1
  C  C738  1  0.20400000  0.04360000  0.12880000  1
  C  C739  1  0.28070000  0.98060000  0.04750000  1
  C  C740  1  0.17780000  0.07590000  0.15190000  1
  C  C741  1  0.18430000  0.96930000  0.05250000  1
  C  C742  1  0.16360000  0.94450000  0.03450000  1
  C  C743  1  0.14250000  0.91540000  0.00810000  1
  C  C744  1  0.10340000  0.88800000  0.01540000  1
  C  C745  1  0.08230000  0.85970000  0.99130000  1
  C  C746  1  0.10120000  0.85970000  0.95860000  1
  C  C747  1  0.14040000  0.88660000  0.95110000  1
  C  C748  1  0.15930000  0.91740000  0.97540000  1
  C  C749  1  0.07790000  0.83010000  0.93185000  1
  C  C750  1  0.26580000  0.20710000  0.36540000  1
  C  C751  1  0.21690000  0.20690000  0.37040000  1
  C  C752  1  0.02660000  0.20810000  0.37880000  1
  C  C753  1  0.03900000  0.15700000  0.37660000  1
  C  C754  1  0.45720000  0.01610000  0.34680000  1
  C  C755  1  0.45730000  0.96620000  0.34540000  1
  C  C756  1  0.45870000  0.77290000  0.33370000  1
  C  C757  1  0.41770000  0.80730000  0.33380000  1
  C  C758  1  0.08160000  0.82680000  0.77465000  1
  C  C759  1  0.11210000  0.84790000  0.74880000  1
  C  C760  1  0.10280000  0.83620000  0.71500000  1
  C  C761  1  0.13110000  0.85750000  0.69030000  1
  C  C762  1  0.17020000  0.88470000  0.69920000  1
  C  C763  1  0.17650000  0.89810000  0.73290000  1
  C  C764  1  0.14960000  0.87580000  0.75740000  1
  C  C765  1  0.19760000  0.91100000  0.67500000  1
  C  C766  1  0.21670000  0.92590000  0.65090000  1
  C  C767  1  0.24680000  0.94950000  0.62720000  1
  C  C768  1  0.22110000  0.96910000  0.60080000  1
  C  C769  1  0.24300000  0.00150000  0.57920000  1
  C  C770  1  0.29210000  0.00430000  0.57910000  1
  C  C771  1  0.31780000  0.98410000  0.60450000  1
  C  C772  1  0.29600000  0.95640000  0.62880000  1
  C  C773  1  0.21930000  0.01940000  0.54750000  1
  C  C774  1  0.32220000  0.92410000  0.65190000  1
  C  C775  1  0.31570000  0.03070000  0.55250000  1
  C  C776  1  0.33640000  0.05550000  0.53450000  1
  C  C777  1  0.35750000  0.08460000  0.50810000  1
  C  C778  1  0.39660000  0.11200000  0.51540000  1
  C  C779  1  0.41770000  0.14030000  0.49130000  1
  C  C780  1  0.39880000  0.14030000  0.45860000  1
  C  C781  1  0.35960000  0.11340000  0.45110000  1
  C  C782  1  0.34070000  0.08260000  0.47540000  1
  C  C783  1  0.42210000  0.16990000  0.43185000  1
  C  C784  1  0.23420000  0.79290000  0.86540000  1
  C  C785  1  0.28310000  0.79310000  0.87040000  1
  C  C786  1  0.47340000  0.79190000  0.87880000  1
  C  C787  1  0.46100000  0.84300000  0.87660000  1
  C  C788  1  0.04280000  0.98390000  0.84680000  1
  C  C789  1  0.04270000  0.03380000  0.84540000  1
  C  C790  1  0.04130000  0.22710000  0.83370000  1
  C  C791  1  0.08230000  0.19270000  0.83380000  1
  C  C792  1  0.58160000  0.32680000  0.27465000  1
  C  C793  1  0.61210000  0.34790000  0.24880000  1
  C  C794  1  0.60280000  0.33620000  0.21500000  1
  C  C795  1  0.63110000  0.35750000  0.19030000  1
  C  C796  1  0.67020000  0.38470000  0.19920000  1
  C  C797  1  0.67650000  0.39810000  0.23290000  1
  C  C798  1  0.64960000  0.37580000  0.25740000  1
  C  C799  1  0.69760000  0.41100000  0.17500000  1
  C  C800  1  0.71670000  0.42590000  0.15090000  1
  C  C801  1  0.74680000  0.44950000  0.12720000  1
  C  C802  1  0.72110000  0.46910000  0.10080000  1
  C  C803  1  0.74300000  0.50150000  0.07920000  1
  C  C804  1  0.79210000  0.50430000  0.07910000  1
  C  C805  1  0.81780000  0.48410000  0.10450000  1
  C  C806  1  0.79600000  0.45640000  0.12880000  1
  C  C807  1  0.71930000  0.51940000  0.04750000  1
  C  C808  1  0.82220000  0.42410000  0.15190000  1
  C  C809  1  0.81570000  0.53070000  0.05250000  1
  C  C810  1  0.83640000  0.55550000  0.03450000  1
  C  C811  1  0.85750000  0.58460000  0.00810000  1
  C  C812  1  0.89660000  0.61200000  0.01540000  1
  C  C813  1  0.91770000  0.64030000  0.99130000  1
  C  C814  1  0.89880000  0.64030000  0.95860000  1
  C  C815  1  0.85960000  0.61340000  0.95110000  1
  C  C816  1  0.84070000  0.58260000  0.97540000  1
  C  C817  1  0.92210000  0.66990000  0.93185000  1
  C  C818  1  0.73420000  0.29290000  0.36540000  1
  C  C819  1  0.78310000  0.29310000  0.37040000  1
  C  C820  1  0.97340000  0.29190000  0.37880000  1
  C  C821  1  0.96100000  0.34300000  0.37660000  1
  C  C822  1  0.54280000  0.48390000  0.34680000  1
  C  C823  1  0.54270000  0.53380000  0.34540000  1
  C  C824  1  0.54130000  0.72710000  0.33370000  1
  C  C825  1  0.58230000  0.69270000  0.33380000  1
  C  C826  1  0.08160000  0.17320000  0.22535000  1
  C  C827  1  0.11210000  0.15210000  0.25120000  1
  C  C828  1  0.10280000  0.16380000  0.28500000  1
  C  C829  1  0.13110000  0.14250000  0.30970000  1
  C  C830  1  0.17020000  0.11530000  0.30080000  1
  C  C831  1  0.17650000  0.10190000  0.26710000  1
  C  C832  1  0.14960000  0.12420000  0.24260000  1
  C  C833  1  0.19760000  0.08900000  0.32500000  1
  C  C834  1  0.21670000  0.07410000  0.34910000  1
  C  C835  1  0.24680000  0.05050000  0.37280000  1
  C  C836  1  0.22110000  0.03090000  0.39920000  1
  C  C837  1  0.24300000  0.99850000  0.42080000  1
  C  C838  1  0.29210000  0.99570000  0.42090000  1
  C  C839  1  0.31780000  0.01590000  0.39550000  1
  C  C840  1  0.29600000  0.04360000  0.37120000  1
  C  C841  1  0.21930000  0.98060000  0.45250000  1
  C  C842  1  0.32220000  0.07590000  0.34810000  1
  C  C843  1  0.31570000  0.96930000  0.44750000  1
  C  C844  1  0.33640000  0.94450000  0.46550000  1
  C  C845  1  0.35750000  0.91540000  0.49190000  1
  C  C846  1  0.39660000  0.88800000  0.48460000  1
  C  C847  1  0.41770000  0.85970000  0.50870000  1
  C  C848  1  0.39880000  0.85970000  0.54140000  1
  C  C849  1  0.35960000  0.88660000  0.54890000  1
  C  C850  1  0.34070000  0.91740000  0.52460000  1
  C  C851  1  0.42210000  0.83010000  0.56815000  1
  C  C852  1  0.23420000  0.20710000  0.13460000  1
  C  C853  1  0.28310000  0.20690000  0.12960000  1
  C  C854  1  0.47340000  0.20810000  0.12120000  1
  C  C855  1  0.46100000  0.15700000  0.12340000  1
  C  C856  1  0.04280000  0.01610000  0.15320000  1
  C  C857  1  0.04270000  0.96620000  0.15460000  1
  C  C858  1  0.04130000  0.77290000  0.16630000  1
  C  C859  1  0.08230000  0.80730000  0.16620000  1
  C  C860  1  0.58160000  0.67320000  0.72535000  1
  C  C861  1  0.61210000  0.65210000  0.75120000  1
  C  C862  1  0.60280000  0.66380000  0.78500000  1
  C  C863  1  0.63110000  0.64250000  0.80970000  1
  C  C864  1  0.67020000  0.61530000  0.80080000  1
  C  C865  1  0.67650000  0.60190000  0.76710000  1
  C  C866  1  0.64960000  0.62420000  0.74260000  1
  C  C867  1  0.69760000  0.58900000  0.82500000  1
  C  C868  1  0.71670000  0.57410000  0.84910000  1
  C  C869  1  0.74680000  0.55050000  0.87280000  1
  C  C870  1  0.72110000  0.53090000  0.89920000  1
  C  C871  1  0.74300000  0.49850000  0.92080000  1
  C  C872  1  0.79210000  0.49570000  0.92090000  1
  C  C873  1  0.81780000  0.51590000  0.89550000  1
  C  C874  1  0.79600000  0.54360000  0.87120000  1
  C  C875  1  0.71930000  0.48060000  0.95250000  1
  C  C876  1  0.82220000  0.57590000  0.84810000  1
  C  C877  1  0.81570000  0.46930000  0.94750000  1
  C  C878  1  0.83640000  0.44450000  0.96550000  1
  C  C879  1  0.85750000  0.41540000  0.99190000  1
  C  C880  1  0.89660000  0.38800000  0.98460000  1
  C  C881  1  0.91770000  0.35970000  0.00870000  1
  C  C882  1  0.89880000  0.35970000  0.04140000  1
  C  C883  1  0.85960000  0.38660000  0.04890000  1
  C  C884  1  0.84070000  0.41740000  0.02460000  1
  C  C885  1  0.92210000  0.33010000  0.06815000  1
  C  C886  1  0.73420000  0.70710000  0.63460000  1
  C  C887  1  0.78310000  0.70690000  0.62960000  1
  C  C888  1  0.97340000  0.70810000  0.62120000  1
  C  C889  1  0.54280000  0.51610000  0.65320000  1
  C  C890  1  0.54270000  0.46620000  0.65460000  1
  C  C891  1  0.54130000  0.27290000  0.66630000  1
  C  C892  1  0.58230000  0.30730000  0.66620000  1
  C  C893  1  0.91840000  0.32680000  0.22535000  1
  C  C894  1  0.88790000  0.34790000  0.25120000  1
  C  C895  1  0.89720000  0.33620000  0.28500000  1
  C  C896  1  0.86890000  0.35750000  0.30970000  1
  C  C897  1  0.82980000  0.38470000  0.30080000  1
  C  C898  1  0.82350000  0.39810000  0.26710000  1
  C  C899  1  0.85040000  0.37580000  0.24260000  1
  C  C900  1  0.80240000  0.41100000  0.32500000  1
  C  C901  1  0.78330000  0.42590000  0.34910000  1
  C  C902  1  0.75320000  0.44950000  0.37280000  1
  C  C903  1  0.77890000  0.46910000  0.39920000  1
  C  C904  1  0.75700000  0.50150000  0.42080000  1
  C  C905  1  0.70790000  0.50430000  0.42090000  1
  C  C906  1  0.68220000  0.48410000  0.39550000  1
  C  C907  1  0.70400000  0.45640000  0.37120000  1
  C  C908  1  0.78070000  0.51940000  0.45250000  1
  C  C909  1  0.67780000  0.42410000  0.34810000  1
  C  C910  1  0.68430000  0.53070000  0.44750000  1
  C  C911  1  0.66360000  0.55550000  0.46550000  1
  C  C912  1  0.64250000  0.58460000  0.49190000  1
  C  C913  1  0.60340000  0.61200000  0.48460000  1
  C  C914  1  0.58230000  0.64030000  0.50870000  1
  C  C915  1  0.60120000  0.64030000  0.54140000  1
  C  C916  1  0.64040000  0.61340000  0.54890000  1
  C  C917  1  0.65930000  0.58260000  0.52460000  1
  C  C918  1  0.57790000  0.66990000  0.56815000  1
  C  C919  1  0.76580000  0.29290000  0.13460000  1
  C  C920  1  0.71690000  0.29310000  0.12960000  1
  C  C921  1  0.52660000  0.29190000  0.12120000  1
  C  C922  1  0.53900000  0.34300000  0.12340000  1
  C  C923  1  0.95720000  0.48390000  0.15320000  1
  C  C924  1  0.95730000  0.53380000  0.15460000  1
  C  C925  1  0.95870000  0.72710000  0.16630000  1
  C  C926  1  0.91770000  0.69270000  0.16620000  1
  C  C927  1  0.41840000  0.82680000  0.72535000  1
  C  C928  1  0.38790000  0.84790000  0.75120000  1
  C  C929  1  0.39720000  0.83620000  0.78500000  1
  C  C930  1  0.36890000  0.85750000  0.80970000  1
  C  C931  1  0.32980000  0.88470000  0.80080000  1
  C  C932  1  0.32350000  0.89810000  0.76710000  1
  C  C933  1  0.35040000  0.87580000  0.74260000  1
  C  C934  1  0.30240000  0.91100000  0.82500000  1
  C  C935  1  0.28330000  0.92590000  0.84910000  1
  C  C936  1  0.25320000  0.94950000  0.87280000  1
  C  C937  1  0.27890000  0.96910000  0.89920000  1
  C  C938  1  0.25700000  0.00150000  0.92080000  1
  C  C939  1  0.20790000  0.00430000  0.92090000  1
  C  C940  1  0.18220000  0.98410000  0.89550000  1
  C  C941  1  0.20400000  0.95640000  0.87120000  1
  C  C942  1  0.28070000  0.01940000  0.95250000  1
  C  C943  1  0.17780000  0.92410000  0.84810000  1
  C  C944  1  0.18430000  0.03070000  0.94750000  1
  C  C945  1  0.16360000  0.05550000  0.96550000  1
  C  C946  1  0.14250000  0.08460000  0.99190000  1
  C  C947  1  0.10340000  0.11200000  0.98460000  1
  C  C948  1  0.08230000  0.14030000  0.00870000  1
  C  C949  1  0.10120000  0.14030000  0.04140000  1
  C  C950  1  0.14040000  0.11340000  0.04890000  1
  C  C951  1  0.15930000  0.08260000  0.02460000  1
  C  C952  1  0.07790000  0.16990000  0.06815000  1
  C  C953  1  0.26580000  0.79290000  0.63460000  1
  C  C954  1  0.21690000  0.79310000  0.62960000  1
  C  C955  1  0.02660000  0.79190000  0.62120000  1
  C  C956  1  0.45720000  0.98390000  0.65320000  1
  C  C957  1  0.45730000  0.03380000  0.65460000  1
  C  C958  1  0.45870000  0.22710000  0.66630000  1
  C  C959  1  0.41770000  0.19270000  0.66620000  1
  C  C960  1  0.15720000  0.25000000  0.14180000  1
  C  C961  1  0.20990000  0.25000000  0.13790000  1
  C  C962  1  0.30820000  0.25000000  0.12740000  1
  C  C963  1  0.35870000  0.25000000  0.12180000  1
  C  C964  1  0.40060000  0.25000000  0.11950000  1
  C  C965  1  0.45040000  0.25000000  0.11870000  1
  C  C966  1  0.65720000  0.75000000  0.64180000  1
  C  C967  1  0.70990000  0.75000000  0.63790000  1
  C  C968  1  0.80820000  0.75000000  0.62740000  1
  C  C969  1  0.85870000  0.75000000  0.62180000  1
  C  C970  1  0.90060000  0.75000000  0.61950000  1
  C  C971  1  0.95040000  0.75000000  0.61870000  1
  C  C972  1  0.84280000  0.25000000  0.14180000  1
  C  C973  1  0.79010000  0.25000000  0.13790000  1
  C  C974  1  0.69180000  0.25000000  0.12740000  1
  C  C975  1  0.64130000  0.25000000  0.12180000  1
  C  C976  1  0.59940000  0.25000000  0.11950000  1
  C  C977  1  0.54960000  0.25000000  0.11870000  1
  C  C978  1  0.34280000  0.75000000  0.64180000  1
  C  C979  1  0.29010000  0.75000000  0.63790000  1
  C  C980  1  0.19180000  0.75000000  0.62740000  1
  C  C981  1  0.14130000  0.75000000  0.62180000  1
  C  C982  1  0.09940000  0.75000000  0.61950000  1
  C  C983  1  0.04960000  0.75000000  0.61870000  1
  C  C984  1  0.84280000  0.75000000  0.85820000  1
  C  C985  1  0.79010000  0.75000000  0.86210000  1
  C  C986  1  0.69180000  0.75000000  0.87260000  1
  C  C987  1  0.64130000  0.75000000  0.87820000  1
  C  C988  1  0.59940000  0.75000000  0.88050000  1
  C  C989  1  0.54960000  0.75000000  0.88130000  1
  C  C990  1  0.34280000  0.25000000  0.35820000  1
  C  C991  1  0.29010000  0.25000000  0.36210000  1
  C  C992  1  0.19180000  0.25000000  0.37260000  1
  C  C993  1  0.14130000  0.25000000  0.37820000  1
  C  C994  1  0.09940000  0.25000000  0.38050000  1
  C  C995  1  0.04960000  0.25000000  0.38130000  1
  C  C996  1  0.15720000  0.75000000  0.85820000  1
  C  C997  1  0.20990000  0.75000000  0.86210000  1
  C  C998  1  0.30820000  0.75000000  0.87260000  1
  C  C999  1  0.35870000  0.75000000  0.87820000  1
  C  C1000  1  0.40060000  0.75000000  0.88050000  1
  C  C1001  1  0.45040000  0.75000000  0.88130000  1
  C  C1002  1  0.65720000  0.25000000  0.35820000  1
  C  C1003  1  0.70990000  0.25000000  0.36210000  1
  C  C1004  1  0.80820000  0.25000000  0.37260000  1
  C  C1005  1  0.85870000  0.25000000  0.37820000  1
  C  C1006  1  0.90060000  0.25000000  0.38050000  1
  C  C1007  1  0.95040000  0.25000000  0.38130000  1
  C  C1008  1  0.00000000  0.40740000  0.14830000  1
  C  C1009  1  0.00000000  0.45990000  0.15220000  1
  C  C1010  1  0.00000000  0.55800000  0.15840000  1
  C  C1011  1  0.00000000  0.60900000  0.15730000  1
  C  C1012  1  0.00000000  0.64920000  0.16650000  1
  C  C1013  1  0.00000000  0.70080000  0.16660000  1
  C  C1014  1  0.50000000  0.90740000  0.64830000  1
  C  C1015  1  0.50000000  0.95990000  0.65220000  1
  C  C1016  1  0.50000000  0.05800000  0.65840000  1
  C  C1017  1  0.50000000  0.10900000  0.65730000  1
  C  C1018  1  0.50000000  0.14920000  0.66650000  1
  C  C1019  1  0.50000000  0.20080000  0.66666667  1
  C  C1020  1  0.00000000  0.09260000  0.14830000  1
  C  C1021  1  0.00000000  0.04010000  0.15220000  1
  C  C1022  1  0.00000000  0.94200000  0.15840000  1
  C  C1023  1  0.00000000  0.89100000  0.15730000  1
  C  C1024  1  0.00000000  0.85080000  0.16650000  1
  C  C1025  1  0.00000000  0.79920000  0.16660000  1
  C  C1026  1  0.50000000  0.59260000  0.64830000  1
  C  C1027  1  0.50000000  0.54010000  0.65220000  1
  C  C1028  1  0.50000000  0.44200000  0.65840000  1
  C  C1029  1  0.50000000  0.39100000  0.65730000  1
  C  C1030  1  0.50000000  0.35080000  0.66650000  1
  C  C1031  1  0.50000000  0.29920000  0.66666667  1
  C  C1032  1  0.00000000  0.90740000  0.85170000  1
  C  C1033  1  0.00000000  0.95990000  0.84780000  1
  C  C1034  1  0.00000000  0.05800000  0.84160000  1
  C  C1035  1  0.00000000  0.10900000  0.84270000  1
  C  C1036  1  0.00000000  0.14920000  0.83350000  1
  C  C1037  1  0.00000000  0.20080000  0.83340000  1
  C  C1038  1  0.50000000  0.40740000  0.35170000  1
  C  C1039  1  0.50000000  0.45990000  0.34780000  1
  C  C1040  1  0.50000000  0.55800000  0.34160000  1
  C  C1041  1  0.50000000  0.60900000  0.34270000  1
  C  C1042  1  0.50000000  0.64920000  0.33350000  1
  C  C1043  1  0.50000000  0.70080000  0.33340000  1
  C  C1044  1  0.00000000  0.59260000  0.85170000  1
  C  C1045  1  0.00000000  0.54010000  0.84780000  1
  C  C1046  1  0.00000000  0.44200000  0.84160000  1
  C  C1047  1  0.00000000  0.39100000  0.84270000  1
  C  C1048  1  0.00000000  0.35080000  0.83350000  1
  C  C1049  1  0.00000000  0.29920000  0.83340000  1
  C  C1050  1  0.50000000  0.09260000  0.35170000  1
  C  C1051  1  0.50000000  0.04010000  0.34780000  1
  C  C1052  1  0.50000000  0.94200000  0.34160000  1
  C  C1053  1  0.50000000  0.89100000  0.34270000  1
  C  C1054  1  0.50000000  0.85080000  0.33350000  1
  C  C1055  1  0.50000000  0.79920000  0.33340000  1
  O  O1056  1  0.09017000  0.33722000  0.19506000  1
  O  O1057  1  0.05070000  0.30070000  0.23394000  1
  O  O1058  1  0.45362000  0.70303000  0.55566000  1
  O  O1059  1  0.41049000  0.65865000  0.59833000  1
  O  O1060  1  0.13783000  0.29042000  0.14481000  1
  O  O1061  1  0.04170000  0.38784000  0.14783000  1
  O  O1062  1  0.59017000  0.83722000  0.69506000  1
  O  O1063  1  0.55070000  0.80070000  0.73394000  1
  O  O1064  1  0.95362000  0.20303000  0.05566000  1
  O  O1065  1  0.91049000  0.15865000  0.09833000  1
  O  O1066  1  0.63783000  0.79042000  0.64481000  1
  O  O1067  1  0.54170000  0.88784000  0.64783000  1
  O  O1068  1  0.90983000  0.16278000  0.19506000  1
  O  O1069  1  0.94930000  0.19930000  0.23394000  1
  O  O1070  1  0.54638000  0.79697000  0.55566000  1
  O  O1071  1  0.58951000  0.84135000  0.59833000  1
  O  O1072  1  0.86217000  0.20958000  0.14481000  1
  O  O1073  1  0.95830000  0.11216000  0.14783000  1
  O  O1074  1  0.40983000  0.66278000  0.69506000  1
  O  O1075  1  0.44930000  0.69930000  0.73394000  1
  O  O1076  1  0.04638000  0.29697000  0.05566000  1
  O  O1077  1  0.08951000  0.34135000  0.09833000  1
  O  O1078  1  0.36217000  0.70958000  0.64481000  1
  O  O1079  1  0.45830000  0.61216000  0.64783000  1
  O  O1080  1  0.90983000  0.83722000  0.80494000  1
  O  O1081  1  0.94930000  0.80070000  0.76606000  1
  O  O1082  1  0.54638000  0.20303000  0.44434000  1
  O  O1083  1  0.58951000  0.15865000  0.40167000  1
  O  O1084  1  0.86217000  0.79042000  0.85519000  1
  O  O1085  1  0.95830000  0.88784000  0.85217000  1
  O  O1086  1  0.40983000  0.33722000  0.30494000  1
  O  O1087  1  0.44930000  0.30070000  0.26606000  1
  O  O1088  1  0.04638000  0.70303000  0.94434000  1
  O  O1089  1  0.08951000  0.65865000  0.90167000  1
  O  O1090  1  0.36217000  0.29042000  0.35519000  1
  O  O1091  1  0.45830000  0.38784000  0.35217000  1
  O  O1092  1  0.09017000  0.66278000  0.80494000  1
  O  O1093  1  0.05070000  0.69930000  0.76606000  1
  O  O1094  1  0.45362000  0.29697000  0.44434000  1
  O  O1095  1  0.41049000  0.34135000  0.40167000  1
  O  O1096  1  0.13783000  0.70958000  0.85519000  1
  O  O1097  1  0.04170000  0.61216000  0.85217000  1
  O  O1098  1  0.59017000  0.16278000  0.30494000  1
  O  O1099  1  0.55070000  0.19930000  0.26606000  1
  O  O1100  1  0.95362000  0.79697000  0.94434000  1
  O  O1101  1  0.91049000  0.84135000  0.90167000  1
  O  O1102  1  0.63783000  0.20958000  0.35519000  1
  O  O1103  1  0.54170000  0.11216000  0.35217000  1
  O  O1104  1  0.90983000  0.66278000  0.80494000  1
  O  O1105  1  0.94930000  0.69930000  0.76606000  1
  O  O1106  1  0.54638000  0.29697000  0.44434000  1
  O  O1107  1  0.58951000  0.34135000  0.40167000  1
  O  O1108  1  0.86217000  0.70958000  0.85519000  1
  O  O1109  1  0.95830000  0.61216000  0.85217000  1
  O  O1110  1  0.40983000  0.16278000  0.30494000  1
  O  O1111  1  0.44930000  0.19930000  0.26606000  1
  O  O1112  1  0.04638000  0.79697000  0.94434000  1
  O  O1113  1  0.08951000  0.84135000  0.90167000  1
  O  O1114  1  0.36217000  0.20958000  0.35519000  1
  O  O1115  1  0.45830000  0.11216000  0.35217000  1
  O  O1116  1  0.09017000  0.83722000  0.80494000  1
  O  O1117  1  0.05070000  0.80070000  0.76606000  1
  O  O1118  1  0.45362000  0.20303000  0.44434000  1
  O  O1119  1  0.41049000  0.15865000  0.40167000  1
  O  O1120  1  0.13783000  0.79042000  0.85519000  1
  O  O1121  1  0.04170000  0.88784000  0.85217000  1
  O  O1122  1  0.59017000  0.33722000  0.30494000  1
  O  O1123  1  0.55070000  0.30070000  0.26606000  1
  O  O1124  1  0.95362000  0.70303000  0.94434000  1
  O  O1125  1  0.91049000  0.65865000  0.90167000  1
  O  O1126  1  0.63783000  0.29042000  0.35519000  1
  O  O1127  1  0.54170000  0.38784000  0.35217000  1
  O  O1128  1  0.09017000  0.16278000  0.19506000  1
  O  O1129  1  0.05070000  0.19930000  0.23394000  1
  O  O1130  1  0.45362000  0.79697000  0.55566000  1
  O  O1131  1  0.41049000  0.84135000  0.59833000  1
  O  O1132  1  0.13783000  0.20958000  0.14481000  1
  O  O1133  1  0.04170000  0.11216000  0.14783000  1
  O  O1134  1  0.59017000  0.66278000  0.69506000  1
  O  O1135  1  0.55070000  0.69930000  0.73394000  1
  O  O1136  1  0.95362000  0.29697000  0.05566000  1
  O  O1137  1  0.91049000  0.34135000  0.09833000  1
  O  O1138  1  0.63783000  0.70958000  0.64481000  1
  O  O1139  1  0.54170000  0.61216000  0.64783000  1
  O  O1140  1  0.90983000  0.33722000  0.19506000  1
  O  O1141  1  0.94930000  0.30070000  0.23394000  1
  O  O1142  1  0.54638000  0.70303000  0.55566000  1
  O  O1143  1  0.58951000  0.65865000  0.59833000  1
  O  O1144  1  0.86217000  0.29042000  0.14481000  1
  O  O1145  1  0.95830000  0.38784000  0.14783000  1
  O  O1146  1  0.40983000  0.83722000  0.69506000  1
  O  O1147  1  0.44930000  0.80070000  0.73394000  1
  O  O1148  1  0.04638000  0.20303000  0.05566000  1
  O  O1149  1  0.08951000  0.15865000  0.09833000  1
  O  O1150  1  0.36217000  0.79042000  0.64481000  1
  O  O1151  1  0.45830000  0.88784000  0.64783000  1
  O  O1152  1  0.06400000  0.25000000  0.17800000  1
  O  O1153  1  0.05980000  0.25000000  0.11640000  1
  O  O1154  1  0.56400000  0.75000000  0.67800000  1
  O  O1155  1  0.55980000  0.75000000  0.61640000  1
  O  O1156  1  0.93600000  0.25000000  0.17800000  1
  O  O1157  1  0.94020000  0.25000000  0.11640000  1
  O  O1158  1  0.43600000  0.75000000  0.67800000  1
  O  O1159  1  0.44020000  0.75000000  0.61640000  1
  O  O1160  1  0.93600000  0.75000000  0.82200000  1
  O  O1161  1  0.94020000  0.75000000  0.88360000  1
  O  O1162  1  0.43600000  0.25000000  0.32200000  1
  O  O1163  1  0.44020000  0.25000000  0.38360000  1
  O  O1164  1  0.06400000  0.75000000  0.82200000  1
  O  O1165  1  0.05980000  0.75000000  0.88360000  1
  O  O1166  1  0.56400000  0.25000000  0.32200000  1
  O  O1167  1  0.55980000  0.25000000  0.38360000  1
  O  O1168  1  0.00000000  0.30640000  0.17440000  1
  O  O1169  1  0.00000000  0.31620000  0.11349000  1
  O  O1170  1  0.50000000  0.80640000  0.67440000  1
  O  O1171  1  0.50000000  0.81620000  0.61349000  1
  O  O1172  1  0.00000000  0.19360000  0.17440000  1
  O  O1173  1  0.00000000  0.18380000  0.11349000  1
  O  O1174  1  0.50000000  0.69360000  0.67440000  1
  O  O1175  1  0.50000000  0.68380000  0.61349000  1
  O  O1176  1  0.00000000  0.80640000  0.82560000  1
  O  O1177  1  0.00000000  0.81620000  0.88651000  1
  O  O1178  1  0.50000000  0.30640000  0.32560000  1
  O  O1179  1  0.50000000  0.31620000  0.38651000  1
  O  O1180  1  0.00000000  0.69360000  0.82560000  1
  O  O1181  1  0.00000000  0.68380000  0.88651000  1
  O  O1182  1  0.50000000  0.19360000  0.32560000  1
  O  O1183  1  0.50000000  0.18380000  0.38651000  1
