# generated using pymatgen
data_Zr6H103C129N3O35
_symmetry_space_group_name_H-M   'P 1'
_cell_length_a   24.06880000
_cell_length_b   24.06880000
_cell_length_c   30.13660000
_cell_angle_alpha   90.00000000
_cell_angle_beta   90.00000000
_cell_angle_gamma   120.00000000
_symmetry_Int_Tables_number   1
_chemical_formula_structural   Zr6H103C129N3O35
_chemical_formula_sum   'Zr24 H412 C516 N12 O140'
_cell_volume   15119.37231980
_cell_formula_units_Z   4
loop_
 _symmetry_equiv_pos_site_id
 _symmetry_equiv_pos_as_xyz
  1  'x, y, z'
loop_
 _atom_site_type_symbol
 _atom_site_label
 _atom_site_symmetry_multiplicity
 _atom_site_fract_x
 _atom_site_fract_y
 _atom_site_fract_z
 _atom_site_occupancy
  Zr  Zr0  1  0.31228000  0.57410000  0.63068000  1
  Zr  Zr1  1  0.40327000  0.64358000  0.53477000  1
  Zr  Zr2  1  0.26182000  0.68772000  0.63068000  1
  Zr  Zr3  1  0.24031000  0.59673000  0.53477000  1
  Zr  Zr4  1  0.42590000  0.73818000  0.63068000  1
  Zr  Zr5  1  0.35642000  0.75969000  0.53477000  1
  Zr  Zr6  1  0.73818000  0.42590000  0.86932000  1
  Zr  Zr7  1  0.75969000  0.35642000  0.96523000  1
  Zr  Zr8  1  0.57410000  0.31228000  0.86932000  1
  Zr  Zr9  1  0.64358000  0.40327000  0.96523000  1
  Zr  Zr10  1  0.68772000  0.26182000  0.86932000  1
  Zr  Zr11  1  0.59673000  0.24031000  0.96523000  1
  Zr  Zr12  1  0.68772000  0.42590000  0.36932000  1
  Zr  Zr13  1  0.59673000  0.35642000  0.46523000  1
  Zr  Zr14  1  0.73818000  0.31228000  0.36932000  1
  Zr  Zr15  1  0.75969000  0.40327000  0.46523000  1
  Zr  Zr16  1  0.57410000  0.26182000  0.36932000  1
  Zr  Zr17  1  0.64358000  0.24031000  0.46523000  1
  Zr  Zr18  1  0.26182000  0.57410000  0.13068000  1
  Zr  Zr19  1  0.24031000  0.64358000  0.03477000  1
  Zr  Zr20  1  0.42590000  0.68772000  0.13068000  1
  Zr  Zr21  1  0.35642000  0.59673000  0.03477000  1
  Zr  Zr22  1  0.31228000  0.73818000  0.13068000  1
  Zr  Zr23  1  0.40327000  0.75969000  0.03477000  1
  H  H24  1  0.45140000  0.64250000  0.61880000  1
  H  H25  1  0.05870000  0.36100000  0.66860000  1
  H  H26  1  0.23700000  0.38400000  0.66310000  1
  H  H27  1  0.08600000  0.21170000  0.69780000  1
  H  H28  1  0.37180000  0.30770000  0.71640000  1
  H  H29  1  0.43510000  0.26080000  0.72860000  1
  H  H30  1  0.39210000  0.15060000  0.71920000  1
  H  H31  1  0.22020000  0.13260000  0.68770000  1
  H  H32  1  0.36020000  0.41890000  0.63480000  1
  H  H33  1  0.39220000  0.34160000  0.63520000  1
  H  H34  1  0.46660000  0.34780000  0.58320000  1
  H  H35  1  0.50000000  0.42230000  0.52690000  1
  H  H36  1  0.46620000  0.49750000  0.52490000  1
  H  H37  1  0.36840000  0.52680000  0.75570000  1
  H  H38  1  0.36630000  0.50830000  0.83240000  1
  H  H39  1  0.40680000  0.59500000  0.88220000  1
  H  H40  1  0.44950000  0.70020000  0.85530000  1
  H  H41  1  0.45160000  0.71870000  0.77860000  1
  H  H42  1  0.55540000  0.75400000  0.43310000  1
  H  H43  1  0.64600000  0.82690000  0.39400000  1
  H  H44  1  0.66420000  0.92960000  0.38010000  1
  H  H45  1  0.59390000  0.96070000  0.40690000  1
  H  H46  1  0.50140000  0.88780000  0.44480000  1
  H  H47  1  0.53840000  0.76940000  0.54180000  1
  H  H48  1  0.68650000  0.83220000  0.57720000  1
  H  H49  1  0.69200000  0.83640000  0.52440000  1
  H  H50  1  0.67440000  0.91520000  0.55190000  1
  H  H51  1  0.60900000  0.86220000  0.57450000  1
  H  H52  1  0.61500000  0.86680000  0.52160000  1
  H  H53  1  0.59750000  0.66740000  0.55400000  1
  H  H54  1  0.66340000  0.72140000  0.57530000  1
  H  H55  1  0.68400000  0.67710000  0.51260000  1
  H  H56  1  0.70880000  0.75150000  0.50410000  1
  H  H57  1  0.64270000  0.69800000  0.48250000  1
  H  H58  1  0.19110000  0.54860000  0.61880000  1
  H  H59  1  0.30230000  0.94130000  0.66860000  1
  H  H60  1  0.14700000  0.76300000  0.66310000  1
  H  H61  1  0.12570000  0.91400000  0.69780000  1
  H  H62  1  0.93590000  0.62820000  0.71640000  1
  H  H63  1  0.82570000  0.56490000  0.72860000  1
  H  H64  1  0.75850000  0.60790000  0.71920000  1
  H  H65  1  0.91240000  0.77980000  0.68770000  1
  H  H66  1  0.05870000  0.63980000  0.63480000  1
  H  H67  1  0.94940000  0.60780000  0.63520000  1
  H  H68  1  0.88120000  0.53340000  0.58320000  1
  H  H69  1  0.92230000  0.50000000  0.52690000  1
  H  H70  1  0.03130000  0.53380000  0.52490000  1
  H  H71  1  0.15840000  0.63160000  0.75570000  1
  H  H72  1  0.14200000  0.63370000  0.83240000  1
  H  H73  1  0.18820000  0.59320000  0.88220000  1
  H  H74  1  0.25070000  0.55050000  0.85530000  1
  H  H75  1  0.26710000  0.54840000  0.77860000  1
  H  H76  1  0.19860000  0.44460000  0.43310000  1
  H  H77  1  0.18090000  0.35400000  0.39400000  1
  H  H78  1  0.26540000  0.33580000  0.38010000  1
  H  H79  1  0.36680000  0.40610000  0.40690000  1
  H  H80  1  0.38640000  0.49860000  0.44480000  1
  H  H81  1  0.23100000  0.46160000  0.54180000  1
  H  H82  1  0.14570000  0.31350000  0.57720000  1
  H  H83  1  0.14440000  0.30800000  0.52440000  1
  H  H84  1  0.24080000  0.32560000  0.55190000  1
  H  H85  1  0.25320000  0.39100000  0.57450000  1
  H  H86  1  0.25180000  0.38500000  0.52160000  1
  H  H87  1  0.06990000  0.40250000  0.55400000  1
  H  H88  1  0.05800000  0.33660000  0.57530000  1
  H  H89  1  0.99310000  0.31600000  0.51260000  1
  H  H90  1  0.04270000  0.29120000  0.50410000  1
  H  H91  1  0.05530000  0.35730000  0.48250000  1
  H  H92  1  0.35750000  0.80890000  0.61880000  1
  H  H93  1  0.63900000  0.69770000  0.66860000  1
  H  H94  1  0.61600000  0.85300000  0.66310000  1
  H  H95  1  0.78830000  0.87430000  0.69780000  1
  H  H96  1  0.69230000  0.06410000  0.71640000  1
  H  H97  1  0.73920000  0.17430000  0.72860000  1
  H  H98  1  0.84940000  0.24150000  0.71920000  1
  H  H99  1  0.86740000  0.08760000  0.68770000  1
  H  H100  1  0.58110000  0.94130000  0.63480000  1
  H  H101  1  0.65840000  0.05060000  0.63520000  1
  H  H102  1  0.65220000  0.11880000  0.58320000  1
  H  H103  1  0.57770000  0.07770000  0.52690000  1
  H  H104  1  0.50250000  0.96870000  0.52490000  1
  H  H105  1  0.47320000  0.84160000  0.75570000  1
  H  H106  1  0.49170000  0.85800000  0.83240000  1
  H  H107  1  0.40500000  0.81180000  0.88220000  1
  H  H108  1  0.29980000  0.74930000  0.85530000  1
  H  H109  1  0.28130000  0.73290000  0.77860000  1
  H  H110  1  0.24600000  0.80140000  0.43310000  1
  H  H111  1  0.17310000  0.81910000  0.39400000  1
  H  H112  1  0.07040000  0.73460000  0.38010000  1
  H  H113  1  0.03930000  0.63320000  0.40690000  1
  H  H114  1  0.11220000  0.61360000  0.44480000  1
  H  H115  1  0.23060000  0.76900000  0.54180000  1
  H  H116  1  0.16780000  0.85430000  0.57720000  1
  H  H117  1  0.16360000  0.85560000  0.52440000  1
  H  H118  1  0.08480000  0.75920000  0.55190000  1
  H  H119  1  0.13780000  0.74680000  0.57450000  1
  H  H120  1  0.13320000  0.74820000  0.52160000  1
  H  H121  1  0.33260000  0.93010000  0.55400000  1
  H  H122  1  0.27860000  0.94200000  0.57530000  1
  H  H123  1  0.32290000  0.00690000  0.51260000  1
  H  H124  1  0.24850000  0.95730000  0.50410000  1
  H  H125  1  0.30200000  0.94470000  0.48250000  1
  H  H126  1  0.80890000  0.35750000  0.88120000  1
  H  H127  1  0.69770000  0.63900000  0.83140000  1
  H  H128  1  0.85300000  0.61600000  0.83690000  1
  H  H129  1  0.87430000  0.78830000  0.80220000  1
  H  H130  1  0.06410000  0.69230000  0.78360000  1
  H  H131  1  0.17430000  0.73920000  0.77140000  1
  H  H132  1  0.24150000  0.84940000  0.78080000  1
  H  H133  1  0.08760000  0.86740000  0.81230000  1
  H  H134  1  0.94130000  0.58110000  0.86520000  1
  H  H135  1  0.05060000  0.65840000  0.86480000  1
  H  H136  1  0.11880000  0.65220000  0.91680000  1
  H  H137  1  0.07770000  0.57770000  0.97310000  1
  H  H138  1  0.96870000  0.50250000  0.97510000  1
  H  H139  1  0.84160000  0.47320000  0.74430000  1
  H  H140  1  0.85800000  0.49170000  0.66760000  1
  H  H141  1  0.81180000  0.40500000  0.61780000  1
  H  H142  1  0.74930000  0.29980000  0.64470000  1
  H  H143  1  0.73290000  0.28130000  0.72140000  1
  H  H144  1  0.80140000  0.24600000  0.06690000  1
  H  H145  1  0.81910000  0.17310000  0.10600000  1
  H  H146  1  0.73460000  0.07040000  0.11990000  1
  H  H147  1  0.63320000  0.03930000  0.09310000  1
  H  H148  1  0.61360000  0.11220000  0.05520000  1
  H  H149  1  0.76900000  0.23060000  0.95820000  1
  H  H150  1  0.85430000  0.16780000  0.92280000  1
  H  H151  1  0.85560000  0.16360000  0.97560000  1
  H  H152  1  0.75920000  0.08480000  0.94810000  1
  H  H153  1  0.74680000  0.13780000  0.92550000  1
  H  H154  1  0.74820000  0.13320000  0.97840000  1
  H  H155  1  0.93010000  0.33260000  0.94600000  1
  H  H156  1  0.94200000  0.27860000  0.92470000  1
  H  H157  1  0.00690000  0.32290000  0.98740000  1
  H  H158  1  0.95730000  0.24850000  0.99590000  1
  H  H159  1  0.94470000  0.30200000  0.01750000  1
  H  H160  1  0.64250000  0.45140000  0.88120000  1
  H  H161  1  0.36100000  0.05870000  0.83140000  1
  H  H162  1  0.38400000  0.23700000  0.83690000  1
  H  H163  1  0.21170000  0.08600000  0.80220000  1
  H  H164  1  0.30770000  0.37180000  0.78360000  1
  H  H165  1  0.26080000  0.43510000  0.77140000  1
  H  H166  1  0.15060000  0.39210000  0.78080000  1
  H  H167  1  0.13260000  0.22020000  0.81230000  1
  H  H168  1  0.41890000  0.36020000  0.86520000  1
  H  H169  1  0.34160000  0.39220000  0.86480000  1
  H  H170  1  0.34780000  0.46660000  0.91680000  1
  H  H171  1  0.42230000  0.50000000  0.97310000  1
  H  H172  1  0.49750000  0.46620000  0.97510000  1
  H  H173  1  0.75400000  0.55540000  0.06690000  1
  H  H174  1  0.82690000  0.64600000  0.10600000  1
  H  H175  1  0.92960000  0.66420000  0.11990000  1
  H  H176  1  0.96070000  0.59390000  0.09310000  1
  H  H177  1  0.88780000  0.50140000  0.05520000  1
  H  H178  1  0.76940000  0.53840000  0.95820000  1
  H  H179  1  0.83220000  0.68650000  0.92280000  1
  H  H180  1  0.83640000  0.69200000  0.97560000  1
  H  H181  1  0.91520000  0.67440000  0.94810000  1
  H  H182  1  0.86220000  0.60900000  0.92550000  1
  H  H183  1  0.86680000  0.61500000  0.97840000  1
  H  H184  1  0.66740000  0.59750000  0.94600000  1
  H  H185  1  0.72140000  0.66340000  0.92470000  1
  H  H186  1  0.67710000  0.68400000  0.98740000  1
  H  H187  1  0.75150000  0.70880000  0.99590000  1
  H  H188  1  0.69800000  0.64270000  0.01750000  1
  H  H189  1  0.52170000  0.37370000  0.75070000  1
  H  H190  1  0.50340000  0.38170000  0.67500000  1
  H  H191  1  0.59050000  0.43330000  0.62590000  1
  H  H192  1  0.69600000  0.47690000  0.65260000  1
  H  H193  1  0.71420000  0.46880000  0.72830000  1
  H  H194  1  0.54860000  0.19110000  0.88120000  1
  H  H195  1  0.94130000  0.30230000  0.83140000  1
  H  H196  1  0.76300000  0.14700000  0.83690000  1
  H  H197  1  0.91400000  0.12570000  0.80220000  1
  H  H198  1  0.62820000  0.93590000  0.78360000  1
  H  H199  1  0.56490000  0.82570000  0.77140000  1
  H  H200  1  0.60790000  0.75850000  0.78080000  1
  H  H201  1  0.77980000  0.91240000  0.81230000  1
  H  H202  1  0.63980000  0.05870000  0.86520000  1
  H  H203  1  0.60780000  0.94940000  0.86480000  1
  H  H204  1  0.53340000  0.88120000  0.91680000  1
  H  H205  1  0.50000000  0.92230000  0.97310000  1
  H  H206  1  0.53380000  0.03130000  0.97510000  1
  H  H207  1  0.44460000  0.19860000  0.06690000  1
  H  H208  1  0.35400000  0.18090000  0.10600000  1
  H  H209  1  0.33580000  0.26540000  0.11990000  1
  H  H210  1  0.40610000  0.36680000  0.09310000  1
  H  H211  1  0.49860000  0.38640000  0.05520000  1
  H  H212  1  0.46160000  0.23100000  0.95820000  1
  H  H213  1  0.31350000  0.14570000  0.92280000  1
  H  H214  1  0.30800000  0.14440000  0.97560000  1
  H  H215  1  0.32560000  0.24080000  0.94810000  1
  H  H216  1  0.39100000  0.25320000  0.92550000  1
  H  H217  1  0.38500000  0.25180000  0.97840000  1
  H  H218  1  0.40250000  0.06990000  0.94600000  1
  H  H219  1  0.33660000  0.05800000  0.92470000  1
  H  H220  1  0.31600000  0.99310000  0.98740000  1
  H  H221  1  0.29120000  0.04270000  0.99590000  1
  H  H222  1  0.35730000  0.05530000  0.01750000  1
  H  H223  1  0.62630000  0.14800000  0.75070000  1
  H  H224  1  0.61830000  0.12170000  0.67500000  1
  H  H225  1  0.56670000  0.15720000  0.62590000  1
  H  H226  1  0.52310000  0.21910000  0.65260000  1
  H  H227  1  0.53120000  0.24540000  0.72830000  1
  H  H228  1  0.54860000  0.35750000  0.38120000  1
  H  H229  1  0.94130000  0.63900000  0.33140000  1
  H  H230  1  0.76300000  0.61600000  0.33690000  1
  H  H231  1  0.91400000  0.78830000  0.30220000  1
  H  H232  1  0.62820000  0.69230000  0.28360000  1
  H  H233  1  0.56490000  0.73920000  0.27140000  1
  H  H234  1  0.60790000  0.84940000  0.28080000  1
  H  H235  1  0.77980000  0.86740000  0.31230000  1
  H  H236  1  0.63980000  0.58110000  0.36520000  1
  H  H237  1  0.60780000  0.65840000  0.36480000  1
  H  H238  1  0.53340000  0.65220000  0.41680000  1
  H  H239  1  0.50000000  0.57770000  0.47310000  1
  H  H240  1  0.53380000  0.50250000  0.47510000  1
  H  H241  1  0.44460000  0.24600000  0.56690000  1
  H  H242  1  0.35400000  0.17310000  0.60600000  1
  H  H243  1  0.33580000  0.07040000  0.61990000  1
  H  H244  1  0.40610000  0.03930000  0.59310000  1
  H  H245  1  0.49860000  0.11220000  0.55520000  1
  H  H246  1  0.46160000  0.23060000  0.45820000  1
  H  H247  1  0.31350000  0.16780000  0.42280000  1
  H  H248  1  0.30800000  0.16360000  0.47560000  1
  H  H249  1  0.32560000  0.08480000  0.44810000  1
  H  H250  1  0.39100000  0.13780000  0.42550000  1
  H  H251  1  0.38500000  0.13320000  0.47840000  1
  H  H252  1  0.40250000  0.33260000  0.44600000  1
  H  H253  1  0.33660000  0.27860000  0.42470000  1
  H  H254  1  0.31600000  0.32290000  0.48740000  1
  H  H255  1  0.29120000  0.24850000  0.49590000  1
  H  H256  1  0.35730000  0.30200000  0.51750000  1
  H  H257  1  0.62630000  0.47830000  0.25070000  1
  H  H258  1  0.61830000  0.49660000  0.17500000  1
  H  H259  1  0.56670000  0.40950000  0.12590000  1
  H  H260  1  0.52310000  0.30400000  0.15260000  1
  H  H261  1  0.53120000  0.28580000  0.22830000  1
  H  H262  1  0.80890000  0.45140000  0.38120000  1
  H  H263  1  0.69770000  0.05870000  0.33140000  1
  H  H264  1  0.85300000  0.23700000  0.33690000  1
  H  H265  1  0.87430000  0.08600000  0.30220000  1
  H  H266  1  0.06410000  0.37180000  0.28360000  1
  H  H267  1  0.17430000  0.43510000  0.27140000  1
  H  H268  1  0.24150000  0.39210000  0.28080000  1
  H  H269  1  0.08760000  0.22020000  0.31230000  1
  H  H270  1  0.94130000  0.36020000  0.36520000  1
  H  H271  1  0.05060000  0.39220000  0.36480000  1
  H  H272  1  0.11880000  0.46660000  0.41680000  1
  H  H273  1  0.07770000  0.50000000  0.47310000  1
  H  H274  1  0.96870000  0.46620000  0.47510000  1
  H  H275  1  0.84160000  0.36840000  0.24430000  1
  H  H276  1  0.85800000  0.36630000  0.16760000  1
  H  H277  1  0.81180000  0.40680000  0.11780000  1
  H  H278  1  0.74930000  0.44950000  0.14470000  1
  H  H279  1  0.73290000  0.45160000  0.22140000  1
  H  H280  1  0.80140000  0.55540000  0.56690000  1
  H  H281  1  0.81910000  0.64600000  0.60600000  1
  H  H282  1  0.73460000  0.66420000  0.61990000  1
  H  H283  1  0.63320000  0.59390000  0.59310000  1
  H  H284  1  0.61360000  0.50140000  0.55520000  1
  H  H285  1  0.76900000  0.53840000  0.45820000  1
  H  H286  1  0.85430000  0.68650000  0.42280000  1
  H  H287  1  0.85560000  0.69200000  0.47560000  1
  H  H288  1  0.75920000  0.67440000  0.44810000  1
  H  H289  1  0.74680000  0.60900000  0.42550000  1
  H  H290  1  0.74820000  0.61500000  0.47840000  1
  H  H291  1  0.93010000  0.59750000  0.44600000  1
  H  H292  1  0.94200000  0.66340000  0.42470000  1
  H  H293  1  0.00690000  0.68400000  0.48740000  1
  H  H294  1  0.95730000  0.70880000  0.49590000  1
  H  H295  1  0.94470000  0.64270000  0.51750000  1
  H  H296  1  0.64250000  0.19110000  0.38120000  1
  H  H297  1  0.36100000  0.30230000  0.33140000  1
  H  H298  1  0.38400000  0.14700000  0.33690000  1
  H  H299  1  0.21170000  0.12570000  0.30220000  1
  H  H300  1  0.30770000  0.93590000  0.28360000  1
  H  H301  1  0.26080000  0.82570000  0.27140000  1
  H  H302  1  0.15060000  0.75850000  0.28080000  1
  H  H303  1  0.13260000  0.91240000  0.31230000  1
  H  H304  1  0.41890000  0.05870000  0.36520000  1
  H  H305  1  0.34160000  0.94940000  0.36480000  1
  H  H306  1  0.34780000  0.88120000  0.41680000  1
  H  H307  1  0.42230000  0.92230000  0.47310000  1
  H  H308  1  0.49750000  0.03130000  0.47510000  1
  H  H309  1  0.52680000  0.15840000  0.24430000  1
  H  H310  1  0.50830000  0.14200000  0.16760000  1
  H  H311  1  0.59500000  0.18820000  0.11780000  1
  H  H312  1  0.70020000  0.25070000  0.14470000  1
  H  H313  1  0.71870000  0.26710000  0.22140000  1
  H  H314  1  0.75400000  0.19860000  0.56690000  1
  H  H315  1  0.82690000  0.18090000  0.60600000  1
  H  H316  1  0.92960000  0.26540000  0.61990000  1
  H  H317  1  0.96070000  0.36680000  0.59310000  1
  H  H318  1  0.88780000  0.38640000  0.55520000  1
  H  H319  1  0.76940000  0.23100000  0.45820000  1
  H  H320  1  0.83220000  0.14570000  0.42280000  1
  H  H321  1  0.83640000  0.14440000  0.47560000  1
  H  H322  1  0.91520000  0.24080000  0.44810000  1
  H  H323  1  0.86220000  0.25320000  0.42550000  1
  H  H324  1  0.86680000  0.25180000  0.47840000  1
  H  H325  1  0.66740000  0.06990000  0.44600000  1
  H  H326  1  0.72140000  0.05800000  0.42470000  1
  H  H327  1  0.67710000  0.99310000  0.48740000  1
  H  H328  1  0.75150000  0.04270000  0.49590000  1
  H  H329  1  0.69800000  0.05530000  0.51750000  1
  H  H330  1  0.19110000  0.64250000  0.11880000  1
  H  H331  1  0.30230000  0.36100000  0.16860000  1
  H  H332  1  0.14700000  0.38400000  0.16310000  1
  H  H333  1  0.12570000  0.21170000  0.19780000  1
  H  H334  1  0.93590000  0.30770000  0.21640000  1
  H  H335  1  0.82570000  0.26080000  0.22860000  1
  H  H336  1  0.75850000  0.15060000  0.21920000  1
  H  H337  1  0.91240000  0.13260000  0.18770000  1
  H  H338  1  0.05870000  0.41890000  0.13480000  1
  H  H339  1  0.94940000  0.34160000  0.13520000  1
  H  H340  1  0.88120000  0.34780000  0.08320000  1
  H  H341  1  0.92230000  0.42230000  0.02690000  1
  H  H342  1  0.03130000  0.49750000  0.02490000  1
  H  H343  1  0.19860000  0.75400000  0.93310000  1
  H  H344  1  0.18090000  0.82690000  0.89400000  1
  H  H345  1  0.26540000  0.92960000  0.88010000  1
  H  H346  1  0.36680000  0.96070000  0.90690000  1
  H  H347  1  0.38640000  0.88780000  0.94480000  1
  H  H348  1  0.23100000  0.76940000  0.04180000  1
  H  H349  1  0.14570000  0.83220000  0.07720000  1
  H  H350  1  0.14440000  0.83640000  0.02440000  1
  H  H351  1  0.24080000  0.91520000  0.05190000  1
  H  H352  1  0.25320000  0.86220000  0.07450000  1
  H  H353  1  0.25180000  0.86680000  0.02160000  1
  H  H354  1  0.06990000  0.66740000  0.05400000  1
  H  H355  1  0.05800000  0.72140000  0.07530000  1
  H  H356  1  0.99310000  0.67710000  0.01260000  1
  H  H357  1  0.04270000  0.75150000  0.00410000  1
  H  H358  1  0.05530000  0.69800000  0.98250000  1
  H  H359  1  0.14800000  0.52170000  0.24930000  1
  H  H360  1  0.12170000  0.50340000  0.32500000  1
  H  H361  1  0.15720000  0.59050000  0.37410000  1
  H  H362  1  0.21910000  0.69600000  0.34740000  1
  H  H363  1  0.24540000  0.71420000  0.27170000  1
  H  H364  1  0.35750000  0.54860000  0.11880000  1
  H  H365  1  0.63900000  0.94130000  0.16860000  1
  H  H366  1  0.61600000  0.76300000  0.16310000  1
  H  H367  1  0.78830000  0.91400000  0.19780000  1
  H  H368  1  0.69230000  0.62820000  0.21640000  1
  H  H369  1  0.73920000  0.56490000  0.22860000  1
  H  H370  1  0.84940000  0.60790000  0.21920000  1
  H  H371  1  0.86740000  0.77980000  0.18770000  1
  H  H372  1  0.58110000  0.63980000  0.13480000  1
  H  H373  1  0.65840000  0.60780000  0.13520000  1
  H  H374  1  0.65220000  0.53340000  0.08320000  1
  H  H375  1  0.57770000  0.50000000  0.02690000  1
  H  H376  1  0.50250000  0.53380000  0.02490000  1
  H  H377  1  0.47320000  0.63160000  0.25570000  1
  H  H378  1  0.49170000  0.63370000  0.33240000  1
  H  H379  1  0.40500000  0.59320000  0.38220000  1
  H  H380  1  0.29980000  0.55050000  0.35530000  1
  H  H381  1  0.28130000  0.54840000  0.27860000  1
  H  H382  1  0.24600000  0.44460000  0.93310000  1
  H  H383  1  0.17310000  0.35400000  0.89400000  1
  H  H384  1  0.07040000  0.33580000  0.88010000  1
  H  H385  1  0.03930000  0.40610000  0.90690000  1
  H  H386  1  0.11220000  0.49860000  0.94480000  1
  H  H387  1  0.23060000  0.46160000  0.04180000  1
  H  H388  1  0.16780000  0.31350000  0.07720000  1
  H  H389  1  0.16360000  0.30800000  0.02440000  1
  H  H390  1  0.08480000  0.32560000  0.05190000  1
  H  H391  1  0.13780000  0.39100000  0.07450000  1
  H  H392  1  0.13320000  0.38500000  0.02160000  1
  H  H393  1  0.33260000  0.40250000  0.05400000  1
  H  H394  1  0.27860000  0.33660000  0.07530000  1
  H  H395  1  0.32290000  0.31600000  0.01260000  1
  H  H396  1  0.24850000  0.29120000  0.00410000  1
  H  H397  1  0.30200000  0.35730000  0.98250000  1
  H  H398  1  0.45140000  0.80890000  0.11880000  1
  H  H399  1  0.05870000  0.69770000  0.16860000  1
  H  H400  1  0.23700000  0.85300000  0.16310000  1
  H  H401  1  0.08600000  0.87430000  0.19780000  1
  H  H402  1  0.37180000  0.06410000  0.21640000  1
  H  H403  1  0.43510000  0.17430000  0.22860000  1
  H  H404  1  0.39210000  0.24150000  0.21920000  1
  H  H405  1  0.22020000  0.08760000  0.18770000  1
  H  H406  1  0.36020000  0.94130000  0.13480000  1
  H  H407  1  0.39220000  0.05060000  0.13520000  1
  H  H408  1  0.46660000  0.11880000  0.08320000  1
  H  H409  1  0.50000000  0.07770000  0.02690000  1
  H  H410  1  0.46620000  0.96870000  0.02490000  1
  H  H411  1  0.36840000  0.84160000  0.25570000  1
  H  H412  1  0.36630000  0.85800000  0.33240000  1
  H  H413  1  0.40680000  0.81180000  0.38220000  1
  H  H414  1  0.44950000  0.74930000  0.35530000  1
  H  H415  1  0.45160000  0.73290000  0.27860000  1
  H  H416  1  0.55540000  0.80140000  0.93310000  1
  H  H417  1  0.64600000  0.81910000  0.89400000  1
  H  H418  1  0.66420000  0.73460000  0.88010000  1
  H  H419  1  0.59390000  0.63320000  0.90690000  1
  H  H420  1  0.50140000  0.61360000  0.94480000  1
  H  H421  1  0.53840000  0.76900000  0.04180000  1
  H  H422  1  0.68650000  0.85430000  0.07720000  1
  H  H423  1  0.69200000  0.85560000  0.02440000  1
  H  H424  1  0.67440000  0.75920000  0.05190000  1
  H  H425  1  0.60900000  0.74680000  0.07450000  1
  H  H426  1  0.61500000  0.74820000  0.02160000  1
  H  H427  1  0.59750000  0.93010000  0.05400000  1
  H  H428  1  0.66340000  0.94200000  0.07530000  1
  H  H429  1  0.68400000  0.00690000  0.01260000  1
  H  H430  1  0.70880000  0.95730000  0.00410000  1
  H  H431  1  0.64270000  0.94470000  0.98250000  1
  H  H432  1  0.33333333  0.66666667  0.47170000  1
  H  H433  1  0.66666667  0.33333333  0.02830000  1
  H  H434  1  0.66666667  0.33333333  0.52830000  1
  H  H435  1  0.33333333  0.66666667  0.97170000  1
  C  C436  1  0.06149000  0.27979000  0.68507000  1
  C  C437  1  0.08637000  0.34371000  0.67172000  1
  C  C438  1  0.15159000  0.38177000  0.66312000  1
  C  C439  1  0.19237000  0.35737000  0.66844000  1
  C  C440  1  0.16848000  0.29387000  0.68164000  1
  C  C441  1  0.10279000  0.25528000  0.68942000  1
  C  C442  1  0.99429000  0.24119000  0.69292000  1
  C  C443  1  0.93752000  0.21042000  0.69836000  1
  C  C444  1  0.17664000  0.44883000  0.64639000  1
  C  C445  1  0.21181000  0.26961000  0.68747000  1
  C  C446  1  0.24870000  0.25075000  0.69332000  1
  C  C447  1  0.29000000  0.22466000  0.70083000  1
  C  C448  1  0.35390000  0.26276000  0.71300000  1
  C  C449  1  0.39140000  0.23480000  0.72009000  1
  C  C450  1  0.36570000  0.16916000  0.71488000  1
  C  C451  1  0.30190000  0.13070000  0.70345000  1
  C  C452  1  0.26389000  0.15863000  0.69605000  1
  C  C453  1  0.41128000  0.46643000  0.58033000  1
  C  C454  1  0.38890000  0.41987000  0.61283000  1
  C  C455  1  0.40840000  0.37450000  0.61335000  1
  C  C456  1  0.45130000  0.37730000  0.58189000  1
  C  C457  1  0.47180000  0.42180000  0.54916000  1
  C  C458  1  0.45190000  0.46658000  0.54799000  1
  C  C459  1  0.39126000  0.51650000  0.57964000  1
  C  C460  1  0.41020000  0.62450000  0.76014000  1
  C  C461  1  0.38500000  0.56220000  0.77605000  1
  C  C462  1  0.38370000  0.55130000  0.82143000  1
  C  C463  1  0.40770000  0.60260000  0.85088000  1
  C  C464  1  0.43290000  0.66480000  0.83499000  1
  C  C465  1  0.43420000  0.67580000  0.78960000  1
  C  C466  1  0.40723000  0.63401000  0.70936000  1
  C  C467  1  0.51849000  0.81303000  0.44205000  1
  C  C468  1  0.56250000  0.79580000  0.42733000  1
  C  C469  1  0.61630000  0.83910000  0.40440000  1
  C  C470  1  0.62730000  0.90000000  0.39640000  1
  C  C471  1  0.58540000  0.91810000  0.41180000  1
  C  C472  1  0.53060000  0.87500000  0.43445000  1
  C  C473  1  0.46028000  0.76669000  0.46717000  1
  C  C474  1  0.55104000  0.73787000  0.54269000  1
  C  C475  1  0.66190000  0.82590000  0.54955000  1
  C  C476  1  0.63810000  0.87130000  0.54937000  1
  C  C477  1  0.63490000  0.71080000  0.54921000  1
  C  C478  1  0.67070000  0.70920000  0.50850000  1
  C  C479  1  0.21830000  0.93851000  0.68507000  1
  C  C480  1  0.25734000  0.91363000  0.67172000  1
  C  C481  1  0.23018000  0.84841000  0.66312000  1
  C  C482  1  0.16500000  0.80763000  0.66844000  1
  C  C483  1  0.12539000  0.83152000  0.68164000  1
  C  C484  1  0.15249000  0.89721000  0.68942000  1
  C  C485  1  0.24690000  0.00571000  0.69292000  1
  C  C486  1  0.27290000  0.06248000  0.69836000  1
  C  C487  1  0.27219000  0.82336000  0.64639000  1
  C  C488  1  0.05780000  0.78819000  0.68747000  1
  C  C489  1  0.00205000  0.75130000  0.69332000  1
  C  C490  1  0.93466000  0.71000000  0.70083000  1
  C  C491  1  0.90886000  0.64610000  0.71300000  1
  C  C492  1  0.84340000  0.60860000  0.72009000  1
  C  C493  1  0.80346000  0.63430000  0.71488000  1
  C  C494  1  0.82880000  0.69810000  0.70345000  1
  C  C495  1  0.89474000  0.73611000  0.69605000  1
  C  C496  1  0.05515000  0.58872000  0.58033000  1
  C  C497  1  0.03097000  0.61110000  0.61283000  1
  C  C498  1  0.96610000  0.59160000  0.61335000  1
  C  C499  1  0.92600000  0.54870000  0.58189000  1
  C  C500  1  0.95000000  0.52820000  0.54916000  1
  C  C501  1  0.01468000  0.54810000  0.54799000  1
  C  C502  1  0.12524000  0.60874000  0.57964000  1
  C  C503  1  0.21430000  0.58980000  0.76014000  1
  C  C504  1  0.17720000  0.61500000  0.77605000  1
  C  C505  1  0.16760000  0.61630000  0.82143000  1
  C  C506  1  0.19490000  0.59230000  0.85088000  1
  C  C507  1  0.23190000  0.56710000  0.83499000  1
  C  C508  1  0.24160000  0.56580000  0.78960000  1
  C  C509  1  0.22678000  0.59277000  0.70936000  1
  C  C510  1  0.29454000  0.48151000  0.44205000  1
  C  C511  1  0.23330000  0.43750000  0.42733000  1
  C  C512  1  0.22280000  0.38370000  0.40440000  1
  C  C513  1  0.27270000  0.37270000  0.39640000  1
  C  C514  1  0.33270000  0.41460000  0.41180000  1
  C  C515  1  0.34440000  0.46940000  0.43445000  1
  C  C516  1  0.30641000  0.53972000  0.46717000  1
  C  C517  1  0.18683000  0.44896000  0.54269000  1
  C  C518  1  0.16400000  0.33810000  0.54955000  1
  C  C519  1  0.23320000  0.36190000  0.54937000  1
  C  C520  1  0.07590000  0.36510000  0.54921000  1
  C  C521  1  0.03850000  0.32930000  0.50850000  1
  C  C522  1  0.72021000  0.78170000  0.68507000  1
  C  C523  1  0.65629000  0.74266000  0.67172000  1
  C  C524  1  0.61823000  0.76982000  0.66312000  1
  C  C525  1  0.64263000  0.83500000  0.66844000  1
  C  C526  1  0.70613000  0.87461000  0.68164000  1
  C  C527  1  0.74472000  0.84751000  0.68942000  1
  C  C528  1  0.75881000  0.75310000  0.69292000  1
  C  C529  1  0.78958000  0.72710000  0.69836000  1
  C  C530  1  0.55117000  0.72781000  0.64639000  1
  C  C531  1  0.73039000  0.94220000  0.68747000  1
  C  C532  1  0.74925000  0.99795000  0.69332000  1
  C  C533  1  0.77534000  0.06534000  0.70083000  1
  C  C534  1  0.73724000  0.09114000  0.71300000  1
  C  C535  1  0.76520000  0.15660000  0.72009000  1
  C  C536  1  0.83084000  0.19654000  0.71488000  1
  C  C537  1  0.86930000  0.17120000  0.70345000  1
  C  C538  1  0.84137000  0.10526000  0.69605000  1
  C  C539  1  0.53357000  0.94485000  0.58033000  1
  C  C540  1  0.58013000  0.96903000  0.61283000  1
  C  C541  1  0.62550000  0.03390000  0.61335000  1
  C  C542  1  0.62270000  0.07400000  0.58189000  1
  C  C543  1  0.57820000  0.05000000  0.54916000  1
  C  C544  1  0.53342000  0.98532000  0.54799000  1
  C  C545  1  0.48350000  0.87476000  0.57964000  1
  C  C546  1  0.37550000  0.78570000  0.76014000  1
  C  C547  1  0.43780000  0.82280000  0.77605000  1
  C  C548  1  0.44870000  0.83240000  0.82143000  1
  C  C549  1  0.39740000  0.80510000  0.85088000  1
  C  C550  1  0.33520000  0.76810000  0.83499000  1
  C  C551  1  0.32420000  0.75840000  0.78960000  1
  C  C552  1  0.36599000  0.77322000  0.70936000  1
  C  C553  1  0.18697000  0.70546000  0.44205000  1
  C  C554  1  0.20420000  0.76670000  0.42733000  1
  C  C555  1  0.16090000  0.77720000  0.40440000  1
  C  C556  1  0.10000000  0.72730000  0.39640000  1
  C  C557  1  0.08190000  0.66730000  0.41180000  1
  C  C558  1  0.12500000  0.65560000  0.43445000  1
  C  C559  1  0.23331000  0.69359000  0.46717000  1
  C  C560  1  0.26213000  0.81317000  0.54269000  1
  C  C561  1  0.17410000  0.83600000  0.54955000  1
  C  C562  1  0.12870000  0.76680000  0.54937000  1
  C  C563  1  0.28920000  0.92410000  0.54921000  1
  C  C564  1  0.29080000  0.96150000  0.50850000  1
  C  C565  1  0.78170000  0.72021000  0.81493000  1
  C  C566  1  0.74266000  0.65629000  0.82828000  1
  C  C567  1  0.76982000  0.61823000  0.83688000  1
  C  C568  1  0.83500000  0.64263000  0.83156000  1
  C  C569  1  0.87461000  0.70613000  0.81836000  1
  C  C570  1  0.84751000  0.74472000  0.81058000  1
  C  C571  1  0.75310000  0.75881000  0.80708000  1
  C  C572  1  0.72710000  0.78958000  0.80164000  1
  C  C573  1  0.72781000  0.55117000  0.85361000  1
  C  C574  1  0.94220000  0.73039000  0.81253000  1
  C  C575  1  0.99795000  0.74925000  0.80668000  1
  C  C576  1  0.06534000  0.77534000  0.79917000  1
  C  C577  1  0.09114000  0.73724000  0.78700000  1
  C  C578  1  0.15660000  0.76520000  0.77991000  1
  C  C579  1  0.19654000  0.83084000  0.78512000  1
  C  C580  1  0.17120000  0.86930000  0.79655000  1
  C  C581  1  0.10526000  0.84137000  0.80395000  1
  C  C582  1  0.94485000  0.53357000  0.91967000  1
  C  C583  1  0.96903000  0.58013000  0.88717000  1
  C  C584  1  0.03390000  0.62550000  0.88665000  1
  C  C585  1  0.07400000  0.62270000  0.91811000  1
  C  C586  1  0.05000000  0.57820000  0.95084000  1
  C  C587  1  0.98532000  0.53342000  0.95201000  1
  C  C588  1  0.87476000  0.48350000  0.92036000  1
  C  C589  1  0.78570000  0.37550000  0.73986000  1
  C  C590  1  0.82280000  0.43780000  0.72395000  1
  C  C591  1  0.83240000  0.44870000  0.67857000  1
  C  C592  1  0.80510000  0.39740000  0.64912000  1
  C  C593  1  0.76810000  0.33520000  0.66501000  1
  C  C594  1  0.75840000  0.32420000  0.71040000  1
  C  C595  1  0.77322000  0.36599000  0.79064000  1
  C  C596  1  0.70546000  0.18697000  0.05795000  1
  C  C597  1  0.76670000  0.20420000  0.07267000  1
  C  C598  1  0.77720000  0.16090000  0.09560000  1
  C  C599  1  0.72730000  0.10000000  0.10360000  1
  C  C600  1  0.66730000  0.08190000  0.08820000  1
  C  C601  1  0.65560000  0.12500000  0.06555000  1
  C  C602  1  0.69359000  0.23331000  0.03283000  1
  C  C603  1  0.81317000  0.26213000  0.95731000  1
  C  C604  1  0.83600000  0.17410000  0.95045000  1
  C  C605  1  0.76680000  0.12870000  0.95063000  1
  C  C606  1  0.92410000  0.28920000  0.95079000  1
  C  C607  1  0.96150000  0.29080000  0.99150000  1
  C  C608  1  0.27979000  0.06149000  0.81493000  1
  C  C609  1  0.34371000  0.08637000  0.82828000  1
  C  C610  1  0.38177000  0.15159000  0.83688000  1
  C  C611  1  0.35737000  0.19237000  0.83156000  1
  C  C612  1  0.29387000  0.16848000  0.81836000  1
  C  C613  1  0.25528000  0.10279000  0.81058000  1
  C  C614  1  0.24119000  0.99429000  0.80708000  1
  C  C615  1  0.21042000  0.93752000  0.80164000  1
  C  C616  1  0.44883000  0.17664000  0.85361000  1
  C  C617  1  0.26961000  0.21181000  0.81253000  1
  C  C618  1  0.25075000  0.24870000  0.80668000  1
  C  C619  1  0.22466000  0.29000000  0.79917000  1
  C  C620  1  0.26276000  0.35390000  0.78700000  1
  C  C621  1  0.23480000  0.39140000  0.77991000  1
  C  C622  1  0.16916000  0.36570000  0.78512000  1
  C  C623  1  0.13070000  0.30190000  0.79655000  1
  C  C624  1  0.15863000  0.26389000  0.80395000  1
  C  C625  1  0.46643000  0.41128000  0.91967000  1
  C  C626  1  0.41987000  0.38890000  0.88717000  1
  C  C627  1  0.37450000  0.40840000  0.88665000  1
  C  C628  1  0.37730000  0.45130000  0.91811000  1
  C  C629  1  0.42180000  0.47180000  0.95084000  1
  C  C630  1  0.46658000  0.45190000  0.95201000  1
  C  C631  1  0.51650000  0.39126000  0.92036000  1
  C  C632  1  0.63401000  0.40723000  0.79064000  1
  C  C633  1  0.81303000  0.51849000  0.05795000  1
  C  C634  1  0.79580000  0.56250000  0.07267000  1
  C  C635  1  0.83910000  0.61630000  0.09560000  1
  C  C636  1  0.90000000  0.62730000  0.10360000  1
  C  C637  1  0.91810000  0.58540000  0.08820000  1
  C  C638  1  0.87500000  0.53060000  0.06555000  1
  C  C639  1  0.76669000  0.46028000  0.03283000  1
  C  C640  1  0.73787000  0.55104000  0.95731000  1
  C  C641  1  0.82590000  0.66190000  0.95045000  1
  C  C642  1  0.87130000  0.63810000  0.95063000  1
  C  C643  1  0.71080000  0.63490000  0.95079000  1
  C  C644  1  0.70920000  0.67070000  0.99150000  1
  C  C645  1  0.61960000  0.42050000  0.74641000  1
  C  C646  1  0.55730000  0.39480000  0.73070000  1
  C  C647  1  0.54640000  0.39950000  0.68590000  1
  C  C648  1  0.59790000  0.43000000  0.65684000  1
  C  C649  1  0.66030000  0.45580000  0.67260000  1
  C  C650  1  0.67120000  0.45110000  0.71740000  1
  C  C651  1  0.93851000  0.21830000  0.81493000  1
  C  C652  1  0.91363000  0.25734000  0.82828000  1
  C  C653  1  0.84841000  0.23018000  0.83688000  1
  C  C654  1  0.80763000  0.16500000  0.83156000  1
  C  C655  1  0.83152000  0.12539000  0.81836000  1
  C  C656  1  0.89721000  0.15249000  0.81058000  1
  C  C657  1  0.00571000  0.24690000  0.80708000  1
  C  C658  1  0.06248000  0.27290000  0.80164000  1
  C  C659  1  0.82336000  0.27219000  0.85361000  1
  C  C660  1  0.78819000  0.05780000  0.81253000  1
  C  C661  1  0.75130000  0.00205000  0.80668000  1
  C  C662  1  0.71000000  0.93466000  0.79917000  1
  C  C663  1  0.64610000  0.90886000  0.78700000  1
  C  C664  1  0.60860000  0.84340000  0.77991000  1
  C  C665  1  0.63430000  0.80346000  0.78512000  1
  C  C666  1  0.69810000  0.82880000  0.79655000  1
  C  C667  1  0.73611000  0.89474000  0.80395000  1
  C  C668  1  0.58872000  0.05515000  0.91967000  1
  C  C669  1  0.61110000  0.03097000  0.88717000  1
  C  C670  1  0.59160000  0.96610000  0.88665000  1
  C  C671  1  0.54870000  0.92600000  0.91811000  1
  C  C672  1  0.52820000  0.95000000  0.95084000  1
  C  C673  1  0.54810000  0.01468000  0.95201000  1
  C  C674  1  0.60874000  0.12524000  0.92036000  1
  C  C675  1  0.59277000  0.22678000  0.79064000  1
  C  C676  1  0.48151000  0.29454000  0.05795000  1
  C  C677  1  0.43750000  0.23330000  0.07267000  1
  C  C678  1  0.38370000  0.22280000  0.09560000  1
  C  C679  1  0.37270000  0.27270000  0.10360000  1
  C  C680  1  0.41460000  0.33270000  0.08820000  1
  C  C681  1  0.46940000  0.34440000  0.06555000  1
  C  C682  1  0.53972000  0.30641000  0.03283000  1
  C  C683  1  0.44896000  0.18683000  0.95731000  1
  C  C684  1  0.33810000  0.16400000  0.95045000  1
  C  C685  1  0.36190000  0.23320000  0.95063000  1
  C  C686  1  0.36510000  0.07590000  0.95079000  1
  C  C687  1  0.32930000  0.03850000  0.99150000  1
  C  C688  1  0.57950000  0.19910000  0.74641000  1
  C  C689  1  0.60520000  0.16250000  0.73070000  1
  C  C690  1  0.60050000  0.14690000  0.68590000  1
  C  C691  1  0.57000000  0.16790000  0.65684000  1
  C  C692  1  0.54420000  0.20450000  0.67260000  1
  C  C693  1  0.54890000  0.22010000  0.71740000  1
  C  C694  1  0.93851000  0.72021000  0.31493000  1
  C  C695  1  0.91363000  0.65629000  0.32828000  1
  C  C696  1  0.84841000  0.61823000  0.33688000  1
  C  C697  1  0.80763000  0.64263000  0.33156000  1
  C  C698  1  0.83152000  0.70613000  0.31836000  1
  C  C699  1  0.89721000  0.74472000  0.31058000  1
  C  C700  1  0.00571000  0.75881000  0.30708000  1
  C  C701  1  0.06248000  0.78958000  0.30164000  1
  C  C702  1  0.82336000  0.55117000  0.35361000  1
  C  C703  1  0.78819000  0.73039000  0.31253000  1
  C  C704  1  0.75130000  0.74925000  0.30668000  1
  C  C705  1  0.71000000  0.77534000  0.29917000  1
  C  C706  1  0.64610000  0.73724000  0.28700000  1
  C  C707  1  0.60860000  0.76520000  0.27991000  1
  C  C708  1  0.63430000  0.83084000  0.28512000  1
  C  C709  1  0.69810000  0.86930000  0.29655000  1
  C  C710  1  0.73611000  0.84137000  0.30395000  1
  C  C711  1  0.58872000  0.53357000  0.41967000  1
  C  C712  1  0.61110000  0.58013000  0.38717000  1
  C  C713  1  0.59160000  0.62550000  0.38665000  1
  C  C714  1  0.54870000  0.62270000  0.41811000  1
  C  C715  1  0.52820000  0.57820000  0.45084000  1
  C  C716  1  0.54810000  0.53342000  0.45201000  1
  C  C717  1  0.60874000  0.48350000  0.42036000  1
  C  C718  1  0.59277000  0.36599000  0.29064000  1
  C  C719  1  0.48151000  0.18697000  0.55795000  1
  C  C720  1  0.43750000  0.20420000  0.57267000  1
  C  C721  1  0.38370000  0.16090000  0.59560000  1
  C  C722  1  0.37270000  0.10000000  0.60360000  1
  C  C723  1  0.41460000  0.08190000  0.58820000  1
  C  C724  1  0.46940000  0.12500000  0.56555000  1
  C  C725  1  0.53972000  0.23331000  0.53283000  1
  C  C726  1  0.44896000  0.26213000  0.45731000  1
  C  C727  1  0.33810000  0.17410000  0.45045000  1
  C  C728  1  0.36190000  0.12870000  0.45063000  1
  C  C729  1  0.36510000  0.28920000  0.45079000  1
  C  C730  1  0.32930000  0.29080000  0.49150000  1
  C  C731  1  0.57950000  0.38040000  0.24641000  1
  C  C732  1  0.60520000  0.44270000  0.23070000  1
  C  C733  1  0.60050000  0.45360000  0.18590000  1
  C  C734  1  0.57000000  0.40210000  0.15684000  1
  C  C735  1  0.54420000  0.33970000  0.17260000  1
  C  C736  1  0.54890000  0.32880000  0.21740000  1
  C  C737  1  0.78170000  0.06149000  0.31493000  1
  C  C738  1  0.74266000  0.08637000  0.32828000  1
  C  C739  1  0.76982000  0.15159000  0.33688000  1
  C  C740  1  0.83500000  0.19237000  0.33156000  1
  C  C741  1  0.87461000  0.16848000  0.31836000  1
  C  C742  1  0.84751000  0.10279000  0.31058000  1
  C  C743  1  0.75310000  0.99429000  0.30708000  1
  C  C744  1  0.72710000  0.93752000  0.30164000  1
  C  C745  1  0.72781000  0.17664000  0.35361000  1
  C  C746  1  0.94220000  0.21181000  0.31253000  1
  C  C747  1  0.99795000  0.24870000  0.30668000  1
  C  C748  1  0.06534000  0.29000000  0.29917000  1
  C  C749  1  0.09114000  0.35390000  0.28700000  1
  C  C750  1  0.15660000  0.39140000  0.27991000  1
  C  C751  1  0.19654000  0.36570000  0.28512000  1
  C  C752  1  0.17120000  0.30190000  0.29655000  1
  C  C753  1  0.10526000  0.26389000  0.30395000  1
  C  C754  1  0.94485000  0.41128000  0.41967000  1
  C  C755  1  0.96903000  0.38890000  0.38717000  1
  C  C756  1  0.03390000  0.40840000  0.38665000  1
  C  C757  1  0.07400000  0.45130000  0.41811000  1
  C  C758  1  0.05000000  0.47180000  0.45084000  1
  C  C759  1  0.98532000  0.45190000  0.45201000  1
  C  C760  1  0.87476000  0.39126000  0.42036000  1
  C  C761  1  0.78570000  0.41020000  0.23986000  1
  C  C762  1  0.82280000  0.38500000  0.22395000  1
  C  C763  1  0.83240000  0.38370000  0.17857000  1
  C  C764  1  0.80510000  0.40770000  0.14912000  1
  C  C765  1  0.76810000  0.43290000  0.16501000  1
  C  C766  1  0.75840000  0.43420000  0.21040000  1
  C  C767  1  0.77322000  0.40723000  0.29064000  1
  C  C768  1  0.70546000  0.51849000  0.55795000  1
  C  C769  1  0.76670000  0.56250000  0.57267000  1
  C  C770  1  0.77720000  0.61630000  0.59560000  1
  C  C771  1  0.72730000  0.62730000  0.60360000  1
  C  C772  1  0.66730000  0.58540000  0.58820000  1
  C  C773  1  0.65560000  0.53060000  0.56555000  1
  C  C774  1  0.69359000  0.46028000  0.53283000  1
  C  C775  1  0.81317000  0.55104000  0.45731000  1
  C  C776  1  0.83600000  0.66190000  0.45045000  1
  C  C777  1  0.76680000  0.63810000  0.45063000  1
  C  C778  1  0.92410000  0.63490000  0.45079000  1
  C  C779  1  0.96150000  0.67070000  0.49150000  1
  C  C780  1  0.27979000  0.21830000  0.31493000  1
  C  C781  1  0.34371000  0.25734000  0.32828000  1
  C  C782  1  0.38177000  0.23018000  0.33688000  1
  C  C783  1  0.35737000  0.16500000  0.33156000  1
  C  C784  1  0.29387000  0.12539000  0.31836000  1
  C  C785  1  0.25528000  0.15249000  0.31058000  1
  C  C786  1  0.24119000  0.24690000  0.30708000  1
  C  C787  1  0.21042000  0.27290000  0.30164000  1
  C  C788  1  0.44883000  0.27219000  0.35361000  1
  C  C789  1  0.26961000  0.05780000  0.31253000  1
  C  C790  1  0.25075000  0.00205000  0.30668000  1
  C  C791  1  0.22466000  0.93466000  0.29917000  1
  C  C792  1  0.26276000  0.90886000  0.28700000  1
  C  C793  1  0.23480000  0.84340000  0.27991000  1
  C  C794  1  0.16916000  0.80346000  0.28512000  1
  C  C795  1  0.13070000  0.82880000  0.29655000  1
  C  C796  1  0.15863000  0.89474000  0.30395000  1
  C  C797  1  0.46643000  0.05515000  0.41967000  1
  C  C798  1  0.41987000  0.03097000  0.38717000  1
  C  C799  1  0.37450000  0.96610000  0.38665000  1
  C  C800  1  0.37730000  0.92600000  0.41811000  1
  C  C801  1  0.42180000  0.95000000  0.45084000  1
  C  C802  1  0.46658000  0.01468000  0.45201000  1
  C  C803  1  0.51650000  0.12524000  0.42036000  1
  C  C804  1  0.62450000  0.21430000  0.23986000  1
  C  C805  1  0.56220000  0.17720000  0.22395000  1
  C  C806  1  0.55130000  0.16760000  0.17857000  1
  C  C807  1  0.60260000  0.19490000  0.14912000  1
  C  C808  1  0.66480000  0.23190000  0.16501000  1
  C  C809  1  0.67580000  0.24160000  0.21040000  1
  C  C810  1  0.63401000  0.22678000  0.29064000  1
  C  C811  1  0.81303000  0.29454000  0.55795000  1
  C  C812  1  0.79580000  0.23330000  0.57267000  1
  C  C813  1  0.83910000  0.22280000  0.59560000  1
  C  C814  1  0.90000000  0.27270000  0.60360000  1
  C  C815  1  0.91810000  0.33270000  0.58820000  1
  C  C816  1  0.87500000  0.34440000  0.56555000  1
  C  C817  1  0.76669000  0.30641000  0.53283000  1
  C  C818  1  0.73787000  0.18683000  0.45731000  1
  C  C819  1  0.82590000  0.16400000  0.45045000  1
  C  C820  1  0.87130000  0.23320000  0.45063000  1
  C  C821  1  0.71080000  0.07590000  0.45079000  1
  C  C822  1  0.70920000  0.03850000  0.49150000  1
  C  C823  1  0.21830000  0.27979000  0.18507000  1
  C  C824  1  0.25734000  0.34371000  0.17172000  1
  C  C825  1  0.23018000  0.38177000  0.16312000  1
  C  C826  1  0.16500000  0.35737000  0.16844000  1
  C  C827  1  0.12539000  0.29387000  0.18164000  1
  C  C828  1  0.15249000  0.25528000  0.18942000  1
  C  C829  1  0.24690000  0.24119000  0.19292000  1
  C  C830  1  0.27290000  0.21042000  0.19836000  1
  C  C831  1  0.27219000  0.44883000  0.14639000  1
  C  C832  1  0.05780000  0.26961000  0.18747000  1
  C  C833  1  0.00205000  0.25075000  0.19332000  1
  C  C834  1  0.93466000  0.22466000  0.20083000  1
  C  C835  1  0.90886000  0.26276000  0.21300000  1
  C  C836  1  0.84340000  0.23480000  0.22009000  1
  C  C837  1  0.80346000  0.16916000  0.21488000  1
  C  C838  1  0.82880000  0.13070000  0.20345000  1
  C  C839  1  0.89474000  0.15863000  0.19605000  1
  C  C840  1  0.05515000  0.46643000  0.08033000  1
  C  C841  1  0.03097000  0.41987000  0.11283000  1
  C  C842  1  0.96610000  0.37450000  0.11335000  1
  C  C843  1  0.92600000  0.37730000  0.08189000  1
  C  C844  1  0.95000000  0.42180000  0.04916000  1
  C  C845  1  0.01468000  0.46658000  0.04799000  1
  C  C846  1  0.12524000  0.51650000  0.07964000  1
  C  C847  1  0.22678000  0.63401000  0.20936000  1
  C  C848  1  0.29454000  0.81303000  0.94205000  1
  C  C849  1  0.23330000  0.79580000  0.92733000  1
  C  C850  1  0.22280000  0.83910000  0.90440000  1
  C  C851  1  0.27270000  0.90000000  0.89640000  1
  C  C852  1  0.33270000  0.91810000  0.91180000  1
  C  C853  1  0.34440000  0.87500000  0.93445000  1
  C  C854  1  0.30641000  0.76669000  0.96717000  1
  C  C855  1  0.18683000  0.73787000  0.04269000  1
  C  C856  1  0.16400000  0.82590000  0.04955000  1
  C  C857  1  0.23320000  0.87130000  0.04937000  1
  C  C858  1  0.07590000  0.71080000  0.04921000  1
  C  C859  1  0.03850000  0.70920000  0.00850000  1
  C  C860  1  0.19910000  0.61960000  0.25359000  1
  C  C861  1  0.16250000  0.55730000  0.26930000  1
  C  C862  1  0.14690000  0.54640000  0.31410000  1
  C  C863  1  0.16790000  0.59790000  0.34316000  1
  C  C864  1  0.20450000  0.66030000  0.32740000  1
  C  C865  1  0.22010000  0.67120000  0.28260000  1
  C  C866  1  0.72021000  0.93851000  0.18507000  1
  C  C867  1  0.65629000  0.91363000  0.17172000  1
  C  C868  1  0.61823000  0.84841000  0.16312000  1
  C  C869  1  0.64263000  0.80763000  0.16844000  1
  C  C870  1  0.70613000  0.83152000  0.18164000  1
  C  C871  1  0.74472000  0.89721000  0.18942000  1
  C  C872  1  0.75881000  0.00571000  0.19292000  1
  C  C873  1  0.78958000  0.06248000  0.19836000  1
  C  C874  1  0.55117000  0.82336000  0.14639000  1
  C  C875  1  0.73039000  0.78819000  0.18747000  1
  C  C876  1  0.74925000  0.75130000  0.19332000  1
  C  C877  1  0.77534000  0.71000000  0.20083000  1
  C  C878  1  0.73724000  0.64610000  0.21300000  1
  C  C879  1  0.76520000  0.60860000  0.22009000  1
  C  C880  1  0.83084000  0.63430000  0.21488000  1
  C  C881  1  0.86930000  0.69810000  0.20345000  1
  C  C882  1  0.84137000  0.73611000  0.19605000  1
  C  C883  1  0.53357000  0.58872000  0.08033000  1
  C  C884  1  0.58013000  0.61110000  0.11283000  1
  C  C885  1  0.62550000  0.59160000  0.11335000  1
  C  C886  1  0.62270000  0.54870000  0.08189000  1
  C  C887  1  0.57820000  0.52820000  0.04916000  1
  C  C888  1  0.53342000  0.54810000  0.04799000  1
  C  C889  1  0.48350000  0.60874000  0.07964000  1
  C  C890  1  0.37550000  0.58980000  0.26014000  1
  C  C891  1  0.43780000  0.61500000  0.27605000  1
  C  C892  1  0.44870000  0.61630000  0.32143000  1
  C  C893  1  0.39740000  0.59230000  0.35088000  1
  C  C894  1  0.33520000  0.56710000  0.33499000  1
  C  C895  1  0.32420000  0.56580000  0.28960000  1
  C  C896  1  0.36599000  0.59277000  0.20936000  1
  C  C897  1  0.18697000  0.48151000  0.94205000  1
  C  C898  1  0.20420000  0.43750000  0.92733000  1
  C  C899  1  0.16090000  0.38370000  0.90440000  1
  C  C900  1  0.10000000  0.37270000  0.89640000  1
  C  C901  1  0.08190000  0.41460000  0.91180000  1
  C  C902  1  0.12500000  0.46940000  0.93445000  1
  C  C903  1  0.23331000  0.53972000  0.96717000  1
  C  C904  1  0.26213000  0.44896000  0.04269000  1
  C  C905  1  0.17410000  0.33810000  0.04955000  1
  C  C906  1  0.12870000  0.36190000  0.04937000  1
  C  C907  1  0.28920000  0.36510000  0.04921000  1
  C  C908  1  0.29080000  0.32930000  0.00850000  1
  C  C909  1  0.06149000  0.78170000  0.18507000  1
  C  C910  1  0.08637000  0.74266000  0.17172000  1
  C  C911  1  0.15159000  0.76982000  0.16312000  1
  C  C912  1  0.19237000  0.83500000  0.16844000  1
  C  C913  1  0.16848000  0.87461000  0.18164000  1
  C  C914  1  0.10279000  0.84751000  0.18942000  1
  C  C915  1  0.99429000  0.75310000  0.19292000  1
  C  C916  1  0.93752000  0.72710000  0.19836000  1
  C  C917  1  0.17664000  0.72781000  0.14639000  1
  C  C918  1  0.21181000  0.94220000  0.18747000  1
  C  C919  1  0.24870000  0.99795000  0.19332000  1
  C  C920  1  0.29000000  0.06534000  0.20083000  1
  C  C921  1  0.35390000  0.09114000  0.21300000  1
  C  C922  1  0.39140000  0.15660000  0.22009000  1
  C  C923  1  0.36570000  0.19654000  0.21488000  1
  C  C924  1  0.30190000  0.17120000  0.20345000  1
  C  C925  1  0.26389000  0.10526000  0.19605000  1
  C  C926  1  0.41128000  0.94485000  0.08033000  1
  C  C927  1  0.38890000  0.96903000  0.11283000  1
  C  C928  1  0.40840000  0.03390000  0.11335000  1
  C  C929  1  0.45130000  0.07400000  0.08189000  1
  C  C930  1  0.47180000  0.05000000  0.04916000  1
  C  C931  1  0.45190000  0.98532000  0.04799000  1
  C  C932  1  0.39126000  0.87476000  0.07964000  1
  C  C933  1  0.41020000  0.78570000  0.26014000  1
  C  C934  1  0.38500000  0.82280000  0.27605000  1
  C  C935  1  0.38370000  0.83240000  0.32143000  1
  C  C936  1  0.40770000  0.80510000  0.35088000  1
  C  C937  1  0.43290000  0.76810000  0.33499000  1
  C  C938  1  0.43420000  0.75840000  0.28960000  1
  C  C939  1  0.40723000  0.77322000  0.20936000  1
  C  C940  1  0.51849000  0.70546000  0.94205000  1
  C  C941  1  0.56250000  0.76670000  0.92733000  1
  C  C942  1  0.61630000  0.77720000  0.90440000  1
  C  C943  1  0.62730000  0.72730000  0.89640000  1
  C  C944  1  0.58540000  0.66730000  0.91180000  1
  C  C945  1  0.53060000  0.65560000  0.93445000  1
  C  C946  1  0.46028000  0.69359000  0.96717000  1
  C  C947  1  0.55104000  0.81317000  0.04269000  1
  C  C948  1  0.66190000  0.83600000  0.04955000  1
  C  C949  1  0.63810000  0.76680000  0.04937000  1
  C  C950  1  0.63490000  0.92410000  0.04921000  1
  C  C951  1  0.67070000  0.96150000  0.00850000  1
  N  N952  1  0.61239000  0.75704000  0.54630000  1
  N  N953  1  0.14465000  0.38761000  0.54630000  1
  N  N954  1  0.24296000  0.85535000  0.54630000  1
  N  N955  1  0.85535000  0.24296000  0.95370000  1
  N  N956  1  0.75704000  0.61239000  0.95370000  1
  N  N957  1  0.38761000  0.14465000  0.95370000  1
  N  N958  1  0.38761000  0.24296000  0.45370000  1
  N  N959  1  0.85535000  0.61239000  0.45370000  1
  N  N960  1  0.75704000  0.14465000  0.45370000  1
  N  N961  1  0.14465000  0.75704000  0.04630000  1
  N  N962  1  0.24296000  0.38761000  0.04630000  1
  N  N963  1  0.61239000  0.85535000  0.04630000  1
  O  O964  1  0.23643000  0.47733000  0.63446000  1
  O  O965  1  0.14080000  0.47144000  0.64370000  1
  O  O966  1  0.31334000  0.58502000  0.56149000  1
  O  O967  1  0.41590000  0.64439000  0.60769000  1
  O  O968  1  0.35340000  0.51291000  0.60988000  1
  O  O969  1  0.41389000  0.55812000  0.54924000  1
  O  O970  1  0.37299000  0.58406000  0.68616000  1
  O  O971  1  0.43363000  0.69044000  0.69551000  1
  O  O972  1  0.45503000  0.71342000  0.47762000  1
  O  O973  1  0.42058000  0.78507000  0.47718000  1
  O  O974  1  0.50847000  0.68032000  0.54043000  1
  O  O975  1  0.24090000  0.76357000  0.63446000  1
  O  O976  1  0.33064000  0.85920000  0.64370000  1
  O  O977  1  0.27168000  0.68666000  0.56149000  1
  O  O978  1  0.22849000  0.58410000  0.60769000  1
  O  O979  1  0.15951000  0.64660000  0.60988000  1
  O  O980  1  0.14423000  0.58611000  0.54924000  1
  O  O981  1  0.21107000  0.62701000  0.68616000  1
  O  O982  1  0.25681000  0.56637000  0.69551000  1
  O  O983  1  0.25839000  0.54497000  0.47762000  1
  O  O984  1  0.36449000  0.57942000  0.47718000  1
  O  O985  1  0.17185000  0.49153000  0.54043000  1
  O  O986  1  0.52267000  0.75910000  0.63446000  1
  O  O987  1  0.52856000  0.66936000  0.64370000  1
  O  O988  1  0.41498000  0.72832000  0.56149000  1
  O  O989  1  0.35561000  0.77151000  0.60769000  1
  O  O990  1  0.48709000  0.84049000  0.60988000  1
  O  O991  1  0.44188000  0.85577000  0.54924000  1
  O  O992  1  0.41594000  0.78893000  0.68616000  1
  O  O993  1  0.30956000  0.74319000  0.69551000  1
  O  O994  1  0.28658000  0.74161000  0.47762000  1
  O  O995  1  0.21493000  0.63551000  0.47718000  1
  O  O996  1  0.31968000  0.82815000  0.54043000  1
  O  O997  1  0.75910000  0.52267000  0.86554000  1
  O  O998  1  0.66936000  0.52856000  0.85630000  1
  O  O999  1  0.72832000  0.41498000  0.93851000  1
  O  O1000  1  0.77151000  0.35561000  0.89231000  1
  O  O1001  1  0.84049000  0.48709000  0.89012000  1
  O  O1002  1  0.85577000  0.44188000  0.95076000  1
  O  O1003  1  0.78893000  0.41594000  0.81384000  1
  O  O1004  1  0.74319000  0.30956000  0.80449000  1
  O  O1005  1  0.74161000  0.28658000  0.02238000  1
  O  O1006  1  0.63551000  0.21493000  0.02282000  1
  O  O1007  1  0.82815000  0.31968000  0.95957000  1
  O  O1008  1  0.47733000  0.23643000  0.86554000  1
  O  O1009  1  0.47144000  0.14080000  0.85630000  1
  O  O1010  1  0.58502000  0.31334000  0.93851000  1
  O  O1011  1  0.64439000  0.41590000  0.89231000  1
  O  O1012  1  0.51291000  0.35340000  0.89012000  1
  O  O1013  1  0.55812000  0.41389000  0.95076000  1
  O  O1014  1  0.58406000  0.37299000  0.81384000  1
  O  O1015  1  0.69044000  0.43363000  0.80449000  1
  O  O1016  1  0.71342000  0.45503000  0.02238000  1
  O  O1017  1  0.78507000  0.42058000  0.02282000  1
  O  O1018  1  0.68032000  0.50847000  0.95957000  1
  O  O1019  1  0.76357000  0.24090000  0.86554000  1
  O  O1020  1  0.85920000  0.33064000  0.85630000  1
  O  O1021  1  0.68666000  0.27168000  0.93851000  1
  O  O1022  1  0.58410000  0.22849000  0.89231000  1
  O  O1023  1  0.64660000  0.15951000  0.89012000  1
  O  O1024  1  0.58611000  0.14423000  0.95076000  1
  O  O1025  1  0.62701000  0.21107000  0.81384000  1
  O  O1026  1  0.56637000  0.25681000  0.80449000  1
  O  O1027  1  0.54497000  0.25839000  0.02238000  1
  O  O1028  1  0.57942000  0.36449000  0.02282000  1
  O  O1029  1  0.49153000  0.17185000  0.95957000  1
  O  O1030  1  0.76357000  0.52267000  0.36554000  1
  O  O1031  1  0.85920000  0.52856000  0.35630000  1
  O  O1032  1  0.68666000  0.41498000  0.43851000  1
  O  O1033  1  0.58410000  0.35561000  0.39231000  1
  O  O1034  1  0.64660000  0.48709000  0.39012000  1
  O  O1035  1  0.58611000  0.44188000  0.45076000  1
  O  O1036  1  0.62701000  0.41594000  0.31384000  1
  O  O1037  1  0.56637000  0.30956000  0.30449000  1
  O  O1038  1  0.54497000  0.28658000  0.52238000  1
  O  O1039  1  0.57942000  0.21493000  0.52282000  1
  O  O1040  1  0.49153000  0.31968000  0.45957000  1
  O  O1041  1  0.75910000  0.23643000  0.36554000  1
  O  O1042  1  0.66936000  0.14080000  0.35630000  1
  O  O1043  1  0.72832000  0.31334000  0.43851000  1
  O  O1044  1  0.77151000  0.41590000  0.39231000  1
  O  O1045  1  0.84049000  0.35340000  0.39012000  1
  O  O1046  1  0.85577000  0.41389000  0.45076000  1
  O  O1047  1  0.78893000  0.37299000  0.31384000  1
  O  O1048  1  0.74319000  0.43363000  0.30449000  1
  O  O1049  1  0.74161000  0.45503000  0.52238000  1
  O  O1050  1  0.63551000  0.42058000  0.52282000  1
  O  O1051  1  0.82815000  0.50847000  0.45957000  1
  O  O1052  1  0.47733000  0.24090000  0.36554000  1
  O  O1053  1  0.47144000  0.33064000  0.35630000  1
  O  O1054  1  0.58502000  0.27168000  0.43851000  1
  O  O1055  1  0.64439000  0.22849000  0.39231000  1
  O  O1056  1  0.51291000  0.15951000  0.39012000  1
  O  O1057  1  0.55812000  0.14423000  0.45076000  1
  O  O1058  1  0.58406000  0.21107000  0.31384000  1
  O  O1059  1  0.69044000  0.25681000  0.30449000  1
  O  O1060  1  0.71342000  0.25839000  0.52238000  1
  O  O1061  1  0.78507000  0.36449000  0.52282000  1
  O  O1062  1  0.68032000  0.17185000  0.45957000  1
  O  O1063  1  0.24090000  0.47733000  0.13446000  1
  O  O1064  1  0.33064000  0.47144000  0.14370000  1
  O  O1065  1  0.27168000  0.58502000  0.06149000  1
  O  O1066  1  0.22849000  0.64439000  0.10769000  1
  O  O1067  1  0.15951000  0.51291000  0.10988000  1
  O  O1068  1  0.14423000  0.55812000  0.04924000  1
  O  O1069  1  0.21107000  0.58406000  0.18616000  1
  O  O1070  1  0.25681000  0.69044000  0.19551000  1
  O  O1071  1  0.25839000  0.71342000  0.97762000  1
  O  O1072  1  0.36449000  0.78507000  0.97718000  1
  O  O1073  1  0.17185000  0.68032000  0.04043000  1
  O  O1074  1  0.52267000  0.76357000  0.13446000  1
  O  O1075  1  0.52856000  0.85920000  0.14370000  1
  O  O1076  1  0.41498000  0.68666000  0.06149000  1
  O  O1077  1  0.35561000  0.58410000  0.10769000  1
  O  O1078  1  0.48709000  0.64660000  0.10988000  1
  O  O1079  1  0.44188000  0.58611000  0.04924000  1
  O  O1080  1  0.41594000  0.62701000  0.18616000  1
  O  O1081  1  0.30956000  0.56637000  0.19551000  1
  O  O1082  1  0.28658000  0.54497000  0.97762000  1
  O  O1083  1  0.21493000  0.57942000  0.97718000  1
  O  O1084  1  0.31968000  0.49153000  0.04043000  1
  O  O1085  1  0.23643000  0.75910000  0.13446000  1
  O  O1086  1  0.14080000  0.66936000  0.14370000  1
  O  O1087  1  0.31334000  0.72832000  0.06149000  1
  O  O1088  1  0.41590000  0.77151000  0.10769000  1
  O  O1089  1  0.35340000  0.84049000  0.10988000  1
  O  O1090  1  0.41389000  0.85577000  0.04924000  1
  O  O1091  1  0.37299000  0.78893000  0.18616000  1
  O  O1092  1  0.43363000  0.74319000  0.19551000  1
  O  O1093  1  0.45503000  0.74161000  0.97762000  1
  O  O1094  1  0.42058000  0.63551000  0.97718000  1
  O  O1095  1  0.50847000  0.82815000  0.04043000  1
  O  O1096  1  0.33333333  0.66666667  0.64142000  1
  O  O1097  1  0.33333333  0.66666667  0.50306000  1
  O  O1098  1  0.66666667  0.33333333  0.85858000  1
  O  O1099  1  0.66666667  0.33333333  0.99694000  1
  O  O1100  1  0.66666667  0.33333333  0.35858000  1
  O  O1101  1  0.66666667  0.33333333  0.49694000  1
  O  O1102  1  0.33333333  0.66666667  0.14142000  1
  O  O1103  1  0.33333333  0.66666667  0.00306000  1
