# generated using pymatgen
data_Zr3H33(C3O)16
_symmetry_space_group_name_H-M   'P 1'
_cell_length_a   44.85600000
_cell_length_b   44.85600000
_cell_length_c   44.85600000
_cell_angle_alpha   90.00000000
_cell_angle_beta   90.00000000
_cell_angle_gamma   90.00000000
_symmetry_Int_Tables_number   1
_chemical_formula_structural   Zr3H33(C3O)16
_chemical_formula_sum   'Zr96 H1056 C1536 O512'
_cell_volume   90252.99637402
_cell_formula_units_Z   32
loop_
 _symmetry_equiv_pos_site_id
 _symmetry_equiv_pos_as_xyz
  1  'x, y, z'
loop_
 _atom_site_type_symbol
 _atom_site_label
 _atom_site_symmetry_multiplicity
 _atom_site_fract_x
 _atom_site_fract_y
 _atom_site_fract_z
 _atom_site_occupancy
  Zr  Zr0  1  0.50002000  0.50002000  0.44481000  1
  Zr  Zr1  1  0.50002000  0.00002000  0.94481000  1
  Zr  Zr2  1  0.00002000  0.50002000  0.94481000  1
  Zr  Zr3  1  0.00002000  0.00002000  0.44481000  1
  Zr  Zr4  1  0.24998000  0.74998000  0.94481000  1
  Zr  Zr5  1  0.24998000  0.24998000  0.44481000  1
  Zr  Zr6  1  0.74998000  0.00002000  0.30519000  1
  Zr  Zr7  1  0.74998000  0.50002000  0.80519000  1
  Zr  Zr8  1  0.24998000  0.50002000  0.30519000  1
  Zr  Zr9  1  0.00002000  0.24998000  0.80519000  1
  Zr  Zr10  1  0.50002000  0.24998000  0.30519000  1
  Zr  Zr11  1  0.44481000  0.50002000  0.50002000  1
  Zr  Zr12  1  0.44481000  0.00002000  0.00002000  1
  Zr  Zr13  1  0.94481000  0.50002000  0.00002000  1
  Zr  Zr14  1  0.94481000  0.00002000  0.50002000  1
  Zr  Zr15  1  0.94481000  0.24998000  0.74998000  1
  Zr  Zr16  1  0.44481000  0.24998000  0.24998000  1
  Zr  Zr17  1  0.30519000  0.74998000  0.00002000  1
  Zr  Zr18  1  0.30519000  0.24998000  0.50002000  1
  Zr  Zr19  1  0.80519000  0.00002000  0.24998000  1
  Zr  Zr20  1  0.80519000  0.50002000  0.74998000  1
  Zr  Zr21  1  0.30519000  0.50002000  0.24998000  1
  Zr  Zr22  1  0.50002000  0.44481000  0.50002000  1
  Zr  Zr23  1  0.50002000  0.94481000  0.00002000  1
  Zr  Zr24  1  0.00002000  0.44481000  0.00002000  1
  Zr  Zr25  1  0.00002000  0.94481000  0.50002000  1
  Zr  Zr26  1  0.74998000  0.94481000  0.24998000  1
  Zr  Zr27  1  0.74998000  0.44481000  0.74998000  1
  Zr  Zr28  1  0.24998000  0.44481000  0.24998000  1
  Zr  Zr29  1  0.00002000  0.30519000  0.74998000  1
  Zr  Zr30  1  0.50002000  0.30519000  0.24998000  1
  Zr  Zr31  1  0.24998000  0.80519000  0.00002000  1
  Zr  Zr32  1  0.24998000  0.30519000  0.50002000  1
  Zr  Zr33  1  0.25002000  0.75002000  0.05519000  1
  Zr  Zr34  1  0.25002000  0.25002000  0.55519000  1
  Zr  Zr35  1  0.49998000  0.49998000  0.55519000  1
  Zr  Zr36  1  0.49998000  0.99998000  0.05519000  1
  Zr  Zr37  1  0.99998000  0.49998000  0.05519000  1
  Zr  Zr38  1  0.99998000  0.99998000  0.55519000  1
  Zr  Zr39  1  0.75002000  0.99998000  0.19481000  1
  Zr  Zr40  1  0.75002000  0.49998000  0.69481000  1
  Zr  Zr41  1  0.25002000  0.49998000  0.19481000  1
  Zr  Zr42  1  0.99998000  0.25002000  0.69481000  1
  Zr  Zr43  1  0.49998000  0.25002000  0.19481000  1
  Zr  Zr44  1  0.25002000  0.69481000  0.99998000  1
  Zr  Zr45  1  0.25002000  0.19481000  0.49998000  1
  Zr  Zr46  1  0.99998000  0.19481000  0.75002000  1
  Zr  Zr47  1  0.49998000  0.19481000  0.25002000  1
  Zr  Zr48  1  0.49998000  0.55519000  0.49998000  1
  Zr  Zr49  1  0.49998000  0.05519000  0.99998000  1
  Zr  Zr50  1  0.99998000  0.55519000  0.99998000  1
  Zr  Zr51  1  0.99998000  0.05519000  0.49998000  1
  Zr  Zr52  1  0.75002000  0.05519000  0.25002000  1
  Zr  Zr53  1  0.75002000  0.55519000  0.75002000  1
  Zr  Zr54  1  0.25002000  0.55519000  0.25002000  1
  Zr  Zr55  1  0.19481000  0.75002000  0.99998000  1
  Zr  Zr56  1  0.19481000  0.25002000  0.49998000  1
  Zr  Zr57  1  0.69481000  0.99998000  0.25002000  1
  Zr  Zr58  1  0.69481000  0.49998000  0.75002000  1
  Zr  Zr59  1  0.19481000  0.49998000  0.25002000  1
  Zr  Zr60  1  0.05519000  0.25002000  0.75002000  1
  Zr  Zr61  1  0.55519000  0.25002000  0.25002000  1
  Zr  Zr62  1  0.55519000  0.49998000  0.49998000  1
  Zr  Zr63  1  0.55519000  0.99998000  0.99998000  1
  Zr  Zr64  1  0.05519000  0.49998000  0.99998000  1
  Zr  Zr65  1  0.05519000  0.99998000  0.49998000  1
  Zr  Zr66  1  0.75002000  0.25002000  0.05519000  1
  Zr  Zr67  1  0.75002000  0.75002000  0.55519000  1
  Zr  Zr68  1  0.25002000  0.99998000  0.69481000  1
  Zr  Zr69  1  0.99998000  0.75002000  0.19481000  1
  Zr  Zr70  1  0.49998000  0.75002000  0.69481000  1
  Zr  Zr71  1  0.05519000  0.75002000  0.25002000  1
  Zr  Zr72  1  0.55519000  0.75002000  0.75002000  1
  Zr  Zr73  1  0.69481000  0.25002000  0.99998000  1
  Zr  Zr74  1  0.69481000  0.75002000  0.49998000  1
  Zr  Zr75  1  0.19481000  0.99998000  0.75002000  1
  Zr  Zr76  1  0.25002000  0.05519000  0.75002000  1
  Zr  Zr77  1  0.99998000  0.69481000  0.25002000  1
  Zr  Zr78  1  0.49998000  0.69481000  0.75002000  1
  Zr  Zr79  1  0.75002000  0.19481000  0.99998000  1
  Zr  Zr80  1  0.75002000  0.69481000  0.49998000  1
  Zr  Zr81  1  0.74998000  0.24998000  0.94481000  1
  Zr  Zr82  1  0.74998000  0.74998000  0.44481000  1
  Zr  Zr83  1  0.24998000  0.00002000  0.80519000  1
  Zr  Zr84  1  0.00002000  0.74998000  0.30519000  1
  Zr  Zr85  1  0.50002000  0.74998000  0.80519000  1
  Zr  Zr86  1  0.74998000  0.30519000  0.00002000  1
  Zr  Zr87  1  0.74998000  0.80519000  0.50002000  1
  Zr  Zr88  1  0.00002000  0.80519000  0.24998000  1
  Zr  Zr89  1  0.50002000  0.80519000  0.74998000  1
  Zr  Zr90  1  0.24998000  0.94481000  0.74998000  1
  Zr  Zr91  1  0.80519000  0.24998000  0.00002000  1
  Zr  Zr92  1  0.80519000  0.74998000  0.50002000  1
  Zr  Zr93  1  0.30519000  0.00002000  0.74998000  1
  Zr  Zr94  1  0.94481000  0.74998000  0.24998000  1
  Zr  Zr95  1  0.44481000  0.74998000  0.74998000  1
  H  H96  1  0.50420000  0.56510000  0.37140000  1
  H  H97  1  0.50420000  0.60190000  0.33480000  1
  H  H98  1  0.52750000  0.63900000  0.31070000  1
  H  H99  1  0.52760000  0.67560000  0.27390000  1
  H  H100  1  0.38900000  0.51260000  0.40900000  1
  H  H101  1  0.39730000  0.47800000  0.40570000  1
  H  H102  1  0.41390000  0.50230000  0.38560000  1
  H  H103  1  0.50420000  0.06510000  0.87140000  1
  H  H104  1  0.50420000  0.10190000  0.83480000  1
  H  H105  1  0.52750000  0.13900000  0.81070000  1
  H  H106  1  0.52760000  0.17560000  0.77390000  1
  H  H107  1  0.00420000  0.56510000  0.87140000  1
  H  H108  1  0.00420000  0.60190000  0.83480000  1
  H  H109  1  0.02750000  0.63900000  0.81070000  1
  H  H110  1  0.02760000  0.67560000  0.77390000  1
  H  H111  1  0.88900000  0.51260000  0.90900000  1
  H  H112  1  0.89730000  0.47800000  0.90570000  1
  H  H113  1  0.91390000  0.50230000  0.88560000  1
  H  H114  1  0.00420000  0.06510000  0.37140000  1
  H  H115  1  0.00420000  0.10190000  0.33480000  1
  H  H116  1  0.02750000  0.13900000  0.31070000  1
  H  H117  1  0.02760000  0.17560000  0.27390000  1
  H  H118  1  0.88900000  0.01260000  0.40900000  1
  H  H119  1  0.89730000  0.97800000  0.40570000  1
  H  H120  1  0.91390000  0.00230000  0.38560000  1
  H  H121  1  0.24580000  0.68490000  0.87140000  1
  H  H122  1  0.24580000  0.64810000  0.83480000  1
  H  H123  1  0.22250000  0.61100000  0.81070000  1
  H  H124  1  0.22240000  0.57440000  0.77390000  1
  H  H125  1  0.36100000  0.73740000  0.90900000  1
  H  H126  1  0.35270000  0.77200000  0.90570000  1
  H  H127  1  0.33610000  0.74770000  0.88560000  1
  H  H128  1  0.24580000  0.18490000  0.37140000  1
  H  H129  1  0.24580000  0.14810000  0.33480000  1
  H  H130  1  0.22250000  0.11100000  0.31070000  1
  H  H131  1  0.22240000  0.07440000  0.27390000  1
  H  H132  1  0.36100000  0.23740000  0.40900000  1
  H  H133  1  0.35270000  0.27200000  0.40570000  1
  H  H134  1  0.33610000  0.24770000  0.38560000  1
  H  H135  1  0.74580000  0.68490000  0.37140000  1
  H  H136  1  0.74580000  0.64810000  0.33480000  1
  H  H137  1  0.72250000  0.61100000  0.31070000  1
  H  H138  1  0.72240000  0.57440000  0.27390000  1
  H  H139  1  0.86100000  0.73740000  0.40900000  1
  H  H140  1  0.85270000  0.77200000  0.40570000  1
  H  H141  1  0.83610000  0.74770000  0.38560000  1
  H  H142  1  0.74580000  0.18490000  0.87140000  1
  H  H143  1  0.74580000  0.14810000  0.83480000  1
  H  H144  1  0.72250000  0.11100000  0.81070000  1
  H  H145  1  0.72240000  0.07440000  0.77390000  1
  H  H146  1  0.74580000  0.06510000  0.37860000  1
  H  H147  1  0.74580000  0.10190000  0.41520000  1
  H  H148  1  0.72250000  0.13900000  0.43930000  1
  H  H149  1  0.72240000  0.17560000  0.47610000  1
  H  H150  1  0.86100000  0.01260000  0.34100000  1
  H  H151  1  0.85270000  0.97800000  0.34430000  1
  H  H152  1  0.83610000  0.00230000  0.36440000  1
  H  H153  1  0.74580000  0.56510000  0.87860000  1
  H  H154  1  0.74580000  0.60190000  0.91520000  1
  H  H155  1  0.72250000  0.63900000  0.93930000  1
  H  H156  1  0.72240000  0.67560000  0.97610000  1
  H  H157  1  0.86100000  0.51260000  0.84100000  1
  H  H158  1  0.85270000  0.47800000  0.84430000  1
  H  H159  1  0.83610000  0.50230000  0.86440000  1
  H  H160  1  0.24580000  0.06510000  0.87860000  1
  H  H161  1  0.24580000  0.10190000  0.91520000  1
  H  H162  1  0.22250000  0.13900000  0.93930000  1
  H  H163  1  0.22240000  0.17560000  0.97610000  1
  H  H164  1  0.36100000  0.01260000  0.84100000  1
  H  H165  1  0.35270000  0.97800000  0.84430000  1
  H  H166  1  0.33610000  0.00230000  0.86440000  1
  H  H167  1  0.24580000  0.56510000  0.37860000  1
  H  H168  1  0.24580000  0.60190000  0.41520000  1
  H  H169  1  0.22250000  0.63900000  0.43930000  1
  H  H170  1  0.22240000  0.67560000  0.47610000  1
  H  H171  1  0.36100000  0.51260000  0.34100000  1
  H  H172  1  0.35270000  0.47800000  0.34430000  1
  H  H173  1  0.33610000  0.50230000  0.36440000  1
  H  H174  1  0.00420000  0.18490000  0.87860000  1
  H  H175  1  0.00420000  0.14810000  0.91520000  1
  H  H176  1  0.02750000  0.11100000  0.93930000  1
  H  H177  1  0.02760000  0.07440000  0.97610000  1
  H  H178  1  0.88900000  0.23740000  0.84100000  1
  H  H179  1  0.89730000  0.27200000  0.84430000  1
  H  H180  1  0.91390000  0.24770000  0.86440000  1
  H  H181  1  0.00420000  0.68490000  0.37860000  1
  H  H182  1  0.00420000  0.64810000  0.41520000  1
  H  H183  1  0.02750000  0.61100000  0.43930000  1
  H  H184  1  0.02760000  0.57440000  0.47610000  1
  H  H185  1  0.88900000  0.73740000  0.34100000  1
  H  H186  1  0.89730000  0.77200000  0.34430000  1
  H  H187  1  0.91390000  0.74770000  0.36440000  1
  H  H188  1  0.50420000  0.18490000  0.37860000  1
  H  H189  1  0.50420000  0.14810000  0.41520000  1
  H  H190  1  0.52750000  0.11100000  0.43930000  1
  H  H191  1  0.52760000  0.07440000  0.47610000  1
  H  H192  1  0.38900000  0.23740000  0.34100000  1
  H  H193  1  0.39730000  0.27200000  0.34430000  1
  H  H194  1  0.41390000  0.24770000  0.36440000  1
  H  H195  1  0.50420000  0.68490000  0.87860000  1
  H  H196  1  0.50420000  0.64810000  0.91520000  1
  H  H197  1  0.52750000  0.61100000  0.93930000  1
  H  H198  1  0.52760000  0.57440000  0.97610000  1
  H  H199  1  0.37140000  0.50420000  0.56510000  1
  H  H200  1  0.33480000  0.50420000  0.60190000  1
  H  H201  1  0.31070000  0.52750000  0.63900000  1
  H  H202  1  0.27390000  0.52760000  0.67560000  1
  H  H203  1  0.40900000  0.38900000  0.51260000  1
  H  H204  1  0.40570000  0.39730000  0.47800000  1
  H  H205  1  0.38560000  0.41390000  0.50230000  1
  H  H206  1  0.37140000  0.00420000  0.06510000  1
  H  H207  1  0.33480000  0.00420000  0.10190000  1
  H  H208  1  0.31070000  0.02750000  0.13900000  1
  H  H209  1  0.27390000  0.02760000  0.17560000  1
  H  H210  1  0.87140000  0.50420000  0.06510000  1
  H  H211  1  0.83480000  0.50420000  0.10190000  1
  H  H212  1  0.81070000  0.52750000  0.13900000  1
  H  H213  1  0.77390000  0.52760000  0.17560000  1
  H  H214  1  0.90900000  0.38900000  0.01260000  1
  H  H215  1  0.90570000  0.39730000  0.97800000  1
  H  H216  1  0.88560000  0.41390000  0.00230000  1
  H  H217  1  0.87140000  0.00420000  0.56510000  1
  H  H218  1  0.83480000  0.00420000  0.60190000  1
  H  H219  1  0.81070000  0.02750000  0.63900000  1
  H  H220  1  0.77390000  0.02760000  0.67560000  1
  H  H221  1  0.87140000  0.24580000  0.68490000  1
  H  H222  1  0.83480000  0.24580000  0.64810000  1
  H  H223  1  0.81070000  0.22250000  0.61100000  1
  H  H224  1  0.77390000  0.22240000  0.57440000  1
  H  H225  1  0.87140000  0.74580000  0.18490000  1
  H  H226  1  0.83480000  0.74580000  0.14810000  1
  H  H227  1  0.81070000  0.72250000  0.11100000  1
  H  H228  1  0.77390000  0.72240000  0.07440000  1
  H  H229  1  0.90900000  0.86100000  0.23740000  1
  H  H230  1  0.90570000  0.85270000  0.27200000  1
  H  H231  1  0.88560000  0.83610000  0.24770000  1
  H  H232  1  0.37140000  0.24580000  0.18490000  1
  H  H233  1  0.33480000  0.24580000  0.14810000  1
  H  H234  1  0.31070000  0.22250000  0.11100000  1
  H  H235  1  0.27390000  0.22240000  0.07440000  1
  H  H236  1  0.40900000  0.36100000  0.23740000  1
  H  H237  1  0.40570000  0.35270000  0.27200000  1
  H  H238  1  0.38560000  0.33610000  0.24770000  1
  H  H239  1  0.37140000  0.74580000  0.68490000  1
  H  H240  1  0.33480000  0.74580000  0.64810000  1
  H  H241  1  0.31070000  0.72250000  0.61100000  1
  H  H242  1  0.27390000  0.72240000  0.57440000  1
  H  H243  1  0.37860000  0.74580000  0.06510000  1
  H  H244  1  0.41520000  0.74580000  0.10190000  1
  H  H245  1  0.43930000  0.72250000  0.13900000  1
  H  H246  1  0.47610000  0.72240000  0.17560000  1
  H  H247  1  0.34100000  0.86100000  0.01260000  1
  H  H248  1  0.34430000  0.85270000  0.97800000  1
  H  H249  1  0.36440000  0.83610000  0.00230000  1
  H  H250  1  0.37860000  0.24580000  0.56510000  1
  H  H251  1  0.41520000  0.24580000  0.60190000  1
  H  H252  1  0.43930000  0.22250000  0.63900000  1
  H  H253  1  0.47610000  0.22240000  0.67560000  1
  H  H254  1  0.34100000  0.36100000  0.51260000  1
  H  H255  1  0.34430000  0.35270000  0.47800000  1
  H  H256  1  0.36440000  0.33610000  0.50230000  1
  H  H257  1  0.87860000  0.74580000  0.56510000  1
  H  H258  1  0.91520000  0.74580000  0.60190000  1
  H  H259  1  0.93930000  0.72250000  0.63900000  1
  H  H260  1  0.97610000  0.72240000  0.67560000  1
  H  H261  1  0.87860000  0.24580000  0.06510000  1
  H  H262  1  0.91520000  0.24580000  0.10190000  1
  H  H263  1  0.93930000  0.22250000  0.13900000  1
  H  H264  1  0.97610000  0.22240000  0.17560000  1
  H  H265  1  0.87860000  0.00420000  0.18490000  1
  H  H266  1  0.91520000  0.00420000  0.14810000  1
  H  H267  1  0.93930000  0.02750000  0.11100000  1
  H  H268  1  0.97610000  0.02760000  0.07440000  1
  H  H269  1  0.87860000  0.50420000  0.68490000  1
  H  H270  1  0.91520000  0.50420000  0.64810000  1
  H  H271  1  0.93930000  0.52750000  0.61100000  1
  H  H272  1  0.97610000  0.52760000  0.57440000  1
  H  H273  1  0.37860000  0.00420000  0.68490000  1
  H  H274  1  0.41520000  0.00420000  0.64810000  1
  H  H275  1  0.43930000  0.02750000  0.61100000  1
  H  H276  1  0.47610000  0.02760000  0.57440000  1
  H  H277  1  0.34100000  0.88900000  0.73740000  1
  H  H278  1  0.34430000  0.89730000  0.77200000  1
  H  H279  1  0.36440000  0.91390000  0.74770000  1
  H  H280  1  0.37860000  0.50420000  0.18490000  1
  H  H281  1  0.41520000  0.50420000  0.14810000  1
  H  H282  1  0.43930000  0.52750000  0.11100000  1
  H  H283  1  0.47610000  0.52760000  0.07440000  1
  H  H284  1  0.56510000  0.37140000  0.50420000  1
  H  H285  1  0.60190000  0.33480000  0.50420000  1
  H  H286  1  0.63900000  0.31070000  0.52750000  1
  H  H287  1  0.67560000  0.27390000  0.52760000  1
  H  H288  1  0.51260000  0.40900000  0.38900000  1
  H  H289  1  0.47800000  0.40570000  0.39730000  1
  H  H290  1  0.50230000  0.38560000  0.41390000  1
  H  H291  1  0.56510000  0.87140000  0.00420000  1
  H  H292  1  0.60190000  0.83480000  0.00420000  1
  H  H293  1  0.63900000  0.81070000  0.02750000  1
  H  H294  1  0.67560000  0.77390000  0.02760000  1
  H  H295  1  0.51260000  0.90900000  0.88900000  1
  H  H296  1  0.47800000  0.90570000  0.89730000  1
  H  H297  1  0.50230000  0.88560000  0.91390000  1
  H  H298  1  0.06510000  0.37140000  0.00420000  1
  H  H299  1  0.10190000  0.33480000  0.00420000  1
  H  H300  1  0.13900000  0.31070000  0.02750000  1
  H  H301  1  0.17560000  0.27390000  0.02760000  1
  H  H302  1  0.06510000  0.87140000  0.50420000  1
  H  H303  1  0.10190000  0.83480000  0.50420000  1
  H  H304  1  0.13900000  0.81070000  0.52750000  1
  H  H305  1  0.17560000  0.77390000  0.52760000  1
  H  H306  1  0.68490000  0.87140000  0.24580000  1
  H  H307  1  0.64810000  0.83480000  0.24580000  1
  H  H308  1  0.61100000  0.81070000  0.22250000  1
  H  H309  1  0.57440000  0.77390000  0.22240000  1
  H  H310  1  0.68490000  0.37140000  0.74580000  1
  H  H311  1  0.64810000  0.33480000  0.74580000  1
  H  H312  1  0.61100000  0.31070000  0.72250000  1
  H  H313  1  0.57440000  0.27390000  0.72240000  1
  H  H314  1  0.18490000  0.87140000  0.74580000  1
  H  H315  1  0.14810000  0.83480000  0.74580000  1
  H  H316  1  0.11100000  0.81070000  0.72250000  1
  H  H317  1  0.07440000  0.77390000  0.72240000  1
  H  H318  1  0.18490000  0.37140000  0.24580000  1
  H  H319  1  0.14810000  0.33480000  0.24580000  1
  H  H320  1  0.11100000  0.31070000  0.22250000  1
  H  H321  1  0.07440000  0.27390000  0.22240000  1
  H  H322  1  0.06510000  0.37860000  0.74580000  1
  H  H323  1  0.10190000  0.41520000  0.74580000  1
  H  H324  1  0.13900000  0.43930000  0.72250000  1
  H  H325  1  0.17560000  0.47610000  0.72240000  1
  H  H326  1  0.06510000  0.87860000  0.24580000  1
  H  H327  1  0.10190000  0.91520000  0.24580000  1
  H  H328  1  0.13900000  0.93930000  0.22250000  1
  H  H329  1  0.17560000  0.97610000  0.22240000  1
  H  H330  1  0.56510000  0.37860000  0.24580000  1
  H  H331  1  0.60190000  0.41520000  0.24580000  1
  H  H332  1  0.63900000  0.43930000  0.22250000  1
  H  H333  1  0.67560000  0.47610000  0.22240000  1
  H  H334  1  0.56510000  0.87860000  0.74580000  1
  H  H335  1  0.60190000  0.91520000  0.74580000  1
  H  H336  1  0.63900000  0.93930000  0.72250000  1
  H  H337  1  0.67560000  0.97610000  0.72240000  1
  H  H338  1  0.18490000  0.87860000  0.00420000  1
  H  H339  1  0.14810000  0.91520000  0.00420000  1
  H  H340  1  0.11100000  0.93930000  0.02750000  1
  H  H341  1  0.07440000  0.97610000  0.02760000  1
  H  H342  1  0.18490000  0.37860000  0.50420000  1
  H  H343  1  0.14810000  0.41520000  0.50420000  1
  H  H344  1  0.11100000  0.43930000  0.52750000  1
  H  H345  1  0.07440000  0.47610000  0.52760000  1
  H  H346  1  0.68490000  0.87860000  0.50420000  1
  H  H347  1  0.64810000  0.91520000  0.50420000  1
  H  H348  1  0.61100000  0.93930000  0.52750000  1
  H  H349  1  0.57440000  0.97610000  0.52760000  1
  H  H350  1  0.68490000  0.37860000  0.00420000  1
  H  H351  1  0.64810000  0.41520000  0.00420000  1
  H  H352  1  0.61100000  0.43930000  0.02750000  1
  H  H353  1  0.57440000  0.47610000  0.02760000  1
  H  H354  1  0.73740000  0.34100000  0.88900000  1
  H  H355  1  0.77200000  0.34430000  0.89730000  1
  H  H356  1  0.74770000  0.36440000  0.91390000  1
  H  H357  1  0.31510000  0.75420000  0.12860000  1
  H  H358  1  0.35190000  0.75420000  0.16520000  1
  H  H359  1  0.38900000  0.77750000  0.18930000  1
  H  H360  1  0.42560000  0.77760000  0.22610000  1
  H  H361  1  0.31510000  0.25420000  0.62860000  1
  H  H362  1  0.35190000  0.25420000  0.66520000  1
  H  H363  1  0.38900000  0.27750000  0.68930000  1
  H  H364  1  0.42560000  0.27760000  0.72610000  1
  H  H365  1  0.81510000  0.75420000  0.62860000  1
  H  H366  1  0.85190000  0.75420000  0.66520000  1
  H  H367  1  0.88900000  0.77750000  0.68930000  1
  H  H368  1  0.92560000  0.77760000  0.72610000  1
  H  H369  1  0.81510000  0.25420000  0.12860000  1
  H  H370  1  0.85190000  0.25420000  0.16520000  1
  H  H371  1  0.88900000  0.27750000  0.18930000  1
  H  H372  1  0.92560000  0.27760000  0.22610000  1
  H  H373  1  0.43490000  0.49580000  0.62860000  1
  H  H374  1  0.39810000  0.49580000  0.66520000  1
  H  H375  1  0.36100000  0.47250000  0.68930000  1
  H  H376  1  0.32440000  0.47240000  0.72610000  1
  H  H377  1  0.48740000  0.61100000  0.59100000  1
  H  H378  1  0.52200000  0.60270000  0.59430000  1
  H  H379  1  0.49770000  0.58610000  0.61440000  1
  H  H380  1  0.43490000  0.99580000  0.12860000  1
  H  H381  1  0.39810000  0.99580000  0.16520000  1
  H  H382  1  0.36100000  0.97250000  0.18930000  1
  H  H383  1  0.32440000  0.97240000  0.22610000  1
  H  H384  1  0.48740000  0.11100000  0.09100000  1
  H  H385  1  0.52200000  0.10270000  0.09430000  1
  H  H386  1  0.49770000  0.08610000  0.11440000  1
  H  H387  1  0.93490000  0.49580000  0.12860000  1
  H  H388  1  0.89810000  0.49580000  0.16520000  1
  H  H389  1  0.86100000  0.47250000  0.18930000  1
  H  H390  1  0.82440000  0.47240000  0.22610000  1
  H  H391  1  0.98740000  0.61100000  0.09100000  1
  H  H392  1  0.02200000  0.60270000  0.09430000  1
  H  H393  1  0.99770000  0.58610000  0.11440000  1
  H  H394  1  0.93490000  0.99580000  0.62860000  1
  H  H395  1  0.89810000  0.99580000  0.66520000  1
  H  H396  1  0.86100000  0.97250000  0.68930000  1
  H  H397  1  0.82440000  0.97240000  0.72610000  1
  H  H398  1  0.98740000  0.11100000  0.59100000  1
  H  H399  1  0.02200000  0.10270000  0.59430000  1
  H  H400  1  0.99770000  0.08610000  0.61440000  1
  H  H401  1  0.81510000  0.99580000  0.12140000  1
  H  H402  1  0.85190000  0.99580000  0.08480000  1
  H  H403  1  0.88900000  0.97250000  0.06070000  1
  H  H404  1  0.92560000  0.97240000  0.02390000  1
  H  H405  1  0.76260000  0.11100000  0.15900000  1
  H  H406  1  0.72800000  0.10270000  0.15570000  1
  H  H407  1  0.75230000  0.08610000  0.13560000  1
  H  H408  1  0.81510000  0.49580000  0.62140000  1
  H  H409  1  0.85190000  0.49580000  0.58480000  1
  H  H410  1  0.88900000  0.47250000  0.56070000  1
  H  H411  1  0.92560000  0.47240000  0.52390000  1
  H  H412  1  0.31510000  0.99580000  0.62140000  1
  H  H413  1  0.35190000  0.99580000  0.58480000  1
  H  H414  1  0.38900000  0.97250000  0.56070000  1
  H  H415  1  0.42560000  0.97240000  0.52390000  1
  H  H416  1  0.26260000  0.11100000  0.65900000  1
  H  H417  1  0.22800000  0.10270000  0.65570000  1
  H  H418  1  0.25230000  0.08610000  0.63560000  1
  H  H419  1  0.31510000  0.49580000  0.12140000  1
  H  H420  1  0.35190000  0.49580000  0.08480000  1
  H  H421  1  0.38900000  0.47250000  0.06070000  1
  H  H422  1  0.42560000  0.47240000  0.02390000  1
  H  H423  1  0.93490000  0.25420000  0.62140000  1
  H  H424  1  0.89810000  0.25420000  0.58480000  1
  H  H425  1  0.86100000  0.27750000  0.56070000  1
  H  H426  1  0.82440000  0.27760000  0.52390000  1
  H  H427  1  0.93490000  0.75420000  0.12140000  1
  H  H428  1  0.89810000  0.75420000  0.08480000  1
  H  H429  1  0.86100000  0.77750000  0.06070000  1
  H  H430  1  0.82440000  0.77760000  0.02390000  1
  H  H431  1  0.98740000  0.63900000  0.15900000  1
  H  H432  1  0.02200000  0.64730000  0.15570000  1
  H  H433  1  0.99770000  0.66390000  0.13560000  1
  H  H434  1  0.43490000  0.25420000  0.12140000  1
  H  H435  1  0.39810000  0.25420000  0.08480000  1
  H  H436  1  0.36100000  0.27750000  0.06070000  1
  H  H437  1  0.32440000  0.27760000  0.02390000  1
  H  H438  1  0.48740000  0.13900000  0.15900000  1
  H  H439  1  0.52200000  0.14730000  0.15570000  1
  H  H440  1  0.49770000  0.16390000  0.13560000  1
  H  H441  1  0.43490000  0.75420000  0.62140000  1
  H  H442  1  0.39810000  0.75420000  0.58480000  1
  H  H443  1  0.36100000  0.77750000  0.56070000  1
  H  H444  1  0.32440000  0.77760000  0.52390000  1
  H  H445  1  0.48740000  0.63900000  0.65900000  1
  H  H446  1  0.52200000  0.64730000  0.65570000  1
  H  H447  1  0.49770000  0.66390000  0.63560000  1
  H  H448  1  0.25420000  0.62140000  0.93490000  1
  H  H449  1  0.25420000  0.58480000  0.89810000  1
  H  H450  1  0.27750000  0.56070000  0.86100000  1
  H  H451  1  0.27760000  0.52390000  0.82440000  1
  H  H452  1  0.25420000  0.12140000  0.43490000  1
  H  H453  1  0.25420000  0.08480000  0.39810000  1
  H  H454  1  0.27750000  0.06070000  0.36100000  1
  H  H455  1  0.27760000  0.02390000  0.32440000  1
  H  H456  1  0.75420000  0.62140000  0.43490000  1
  H  H457  1  0.75420000  0.58480000  0.39810000  1
  H  H458  1  0.77750000  0.56070000  0.36100000  1
  H  H459  1  0.77760000  0.52390000  0.32440000  1
  H  H460  1  0.63900000  0.65900000  0.48740000  1
  H  H461  1  0.64730000  0.65570000  0.52200000  1
  H  H462  1  0.66390000  0.63560000  0.49770000  1
  H  H463  1  0.75420000  0.12140000  0.93490000  1
  H  H464  1  0.75420000  0.08480000  0.89810000  1
  H  H465  1  0.77750000  0.06070000  0.86100000  1
  H  H466  1  0.77760000  0.02390000  0.82440000  1
  H  H467  1  0.99580000  0.12140000  0.81510000  1
  H  H468  1  0.99580000  0.08480000  0.85190000  1
  H  H469  1  0.97250000  0.06070000  0.88900000  1
  H  H470  1  0.97240000  0.02390000  0.92560000  1
  H  H471  1  0.11100000  0.15900000  0.76260000  1
  H  H472  1  0.10270000  0.15570000  0.72800000  1
  H  H473  1  0.08610000  0.13560000  0.75230000  1
  H  H474  1  0.99580000  0.62140000  0.31510000  1
  H  H475  1  0.99580000  0.58480000  0.35190000  1
  H  H476  1  0.97250000  0.56070000  0.38900000  1
  H  H477  1  0.97240000  0.52390000  0.42560000  1
  H  H478  1  0.11100000  0.65900000  0.26260000  1
  H  H479  1  0.10270000  0.65570000  0.22800000  1
  H  H480  1  0.08610000  0.63560000  0.25230000  1
  H  H481  1  0.49580000  0.12140000  0.31510000  1
  H  H482  1  0.49580000  0.08480000  0.35190000  1
  H  H483  1  0.47250000  0.06070000  0.38900000  1
  H  H484  1  0.47240000  0.02390000  0.42560000  1
  H  H485  1  0.49580000  0.62140000  0.81510000  1
  H  H486  1  0.49580000  0.58480000  0.85190000  1
  H  H487  1  0.47250000  0.56070000  0.88900000  1
  H  H488  1  0.47240000  0.52390000  0.92560000  1
  H  H489  1  0.49580000  0.62860000  0.43490000  1
  H  H490  1  0.49580000  0.66520000  0.39810000  1
  H  H491  1  0.47250000  0.68930000  0.36100000  1
  H  H492  1  0.47240000  0.72610000  0.32440000  1
  H  H493  1  0.61100000  0.59100000  0.48740000  1
  H  H494  1  0.60270000  0.59430000  0.52200000  1
  H  H495  1  0.58610000  0.61440000  0.49770000  1
  H  H496  1  0.49580000  0.12860000  0.93490000  1
  H  H497  1  0.49580000  0.16520000  0.89810000  1
  H  H498  1  0.47250000  0.18930000  0.86100000  1
  H  H499  1  0.47240000  0.22610000  0.82440000  1
  H  H500  1  0.99580000  0.62860000  0.93490000  1
  H  H501  1  0.99580000  0.66520000  0.89810000  1
  H  H502  1  0.97250000  0.68930000  0.86100000  1
  H  H503  1  0.97240000  0.72610000  0.82440000  1
  H  H504  1  0.11100000  0.59100000  0.98740000  1
  H  H505  1  0.10270000  0.59430000  0.02200000  1
  H  H506  1  0.08610000  0.61440000  0.99770000  1
  H  H507  1  0.99580000  0.12860000  0.43490000  1
  H  H508  1  0.99580000  0.16520000  0.39810000  1
  H  H509  1  0.97250000  0.18930000  0.36100000  1
  H  H510  1  0.97240000  0.22610000  0.32440000  1
  H  H511  1  0.11100000  0.09100000  0.48740000  1
  H  H512  1  0.10270000  0.09430000  0.52200000  1
  H  H513  1  0.08610000  0.11440000  0.49770000  1
  H  H514  1  0.75420000  0.12860000  0.31510000  1
  H  H515  1  0.75420000  0.16520000  0.35190000  1
  H  H516  1  0.77750000  0.18930000  0.38900000  1
  H  H517  1  0.77760000  0.22610000  0.42560000  1
  H  H518  1  0.63900000  0.09100000  0.26260000  1
  H  H519  1  0.64730000  0.09430000  0.22800000  1
  H  H520  1  0.66390000  0.11440000  0.25230000  1
  H  H521  1  0.75420000  0.62860000  0.81510000  1
  H  H522  1  0.75420000  0.66520000  0.85190000  1
  H  H523  1  0.77750000  0.68930000  0.88900000  1
  H  H524  1  0.77760000  0.72610000  0.92560000  1
  H  H525  1  0.63900000  0.59100000  0.76260000  1
  H  H526  1  0.64730000  0.59430000  0.72800000  1
  H  H527  1  0.66390000  0.61440000  0.75230000  1
  H  H528  1  0.25420000  0.12860000  0.81510000  1
  H  H529  1  0.25420000  0.16520000  0.85190000  1
  H  H530  1  0.27750000  0.18930000  0.88900000  1
  H  H531  1  0.27760000  0.22610000  0.92560000  1
  H  H532  1  0.13900000  0.09100000  0.76260000  1
  H  H533  1  0.14730000  0.09430000  0.72800000  1
  H  H534  1  0.16390000  0.11440000  0.75230000  1
  H  H535  1  0.25420000  0.62860000  0.31510000  1
  H  H536  1  0.25420000  0.66520000  0.35190000  1
  H  H537  1  0.27750000  0.68930000  0.38900000  1
  H  H538  1  0.27760000  0.72610000  0.42560000  1
  H  H539  1  0.12140000  0.81510000  0.99580000  1
  H  H540  1  0.08480000  0.85190000  0.99580000  1
  H  H541  1  0.06070000  0.88900000  0.97250000  1
  H  H542  1  0.02390000  0.92560000  0.97240000  1
  H  H543  1  0.15900000  0.76260000  0.11100000  1
  H  H544  1  0.15570000  0.72800000  0.10270000  1
  H  H545  1  0.13560000  0.75230000  0.08610000  1
  H  H546  1  0.12140000  0.31510000  0.49580000  1
  H  H547  1  0.08480000  0.35190000  0.49580000  1
  H  H548  1  0.06070000  0.38900000  0.47250000  1
  H  H549  1  0.02390000  0.42560000  0.47240000  1
  H  H550  1  0.15900000  0.26260000  0.61100000  1
  H  H551  1  0.15570000  0.22800000  0.60270000  1
  H  H552  1  0.13560000  0.25230000  0.58610000  1
  H  H553  1  0.62140000  0.81510000  0.49580000  1
  H  H554  1  0.58480000  0.85190000  0.49580000  1
  H  H555  1  0.56070000  0.88900000  0.47250000  1
  H  H556  1  0.52390000  0.92560000  0.47240000  1
  H  H557  1  0.65900000  0.76260000  0.61100000  1
  H  H558  1  0.65570000  0.72800000  0.60270000  1
  H  H559  1  0.63560000  0.75230000  0.58610000  1
  H  H560  1  0.62140000  0.31510000  0.99580000  1
  H  H561  1  0.58480000  0.35190000  0.99580000  1
  H  H562  1  0.56070000  0.38900000  0.97250000  1
  H  H563  1  0.52390000  0.42560000  0.97240000  1
  H  H564  1  0.65900000  0.26260000  0.11100000  1
  H  H565  1  0.65570000  0.22800000  0.10270000  1
  H  H566  1  0.63560000  0.25230000  0.08610000  1
  H  H567  1  0.62140000  0.93490000  0.25420000  1
  H  H568  1  0.58480000  0.89810000  0.25420000  1
  H  H569  1  0.56070000  0.86100000  0.27750000  1
  H  H570  1  0.52390000  0.82440000  0.27760000  1
  H  H571  1  0.65900000  0.98740000  0.13900000  1
  H  H572  1  0.65570000  0.02200000  0.14730000  1
  H  H573  1  0.63560000  0.99770000  0.16390000  1
  H  H574  1  0.62140000  0.43490000  0.75420000  1
  H  H575  1  0.58480000  0.39810000  0.75420000  1
  H  H576  1  0.56070000  0.36100000  0.77750000  1
  H  H577  1  0.52390000  0.32440000  0.77760000  1
  H  H578  1  0.65900000  0.48740000  0.63900000  1
  H  H579  1  0.65570000  0.52200000  0.64730000  1
  H  H580  1  0.63560000  0.49770000  0.66390000  1
  H  H581  1  0.12140000  0.93490000  0.75420000  1
  H  H582  1  0.08480000  0.89810000  0.75420000  1
  H  H583  1  0.06070000  0.86100000  0.77750000  1
  H  H584  1  0.02390000  0.82440000  0.77760000  1
  H  H585  1  0.15900000  0.98740000  0.63900000  1
  H  H586  1  0.15570000  0.02200000  0.64730000  1
  H  H587  1  0.13560000  0.99770000  0.66390000  1
  H  H588  1  0.12140000  0.43490000  0.25420000  1
  H  H589  1  0.08480000  0.39810000  0.25420000  1
  H  H590  1  0.06070000  0.36100000  0.27750000  1
  H  H591  1  0.02390000  0.32440000  0.27760000  1
  H  H592  1  0.12860000  0.31510000  0.75420000  1
  H  H593  1  0.16520000  0.35190000  0.75420000  1
  H  H594  1  0.18930000  0.38900000  0.77750000  1
  H  H595  1  0.22610000  0.42560000  0.77760000  1
  H  H596  1  0.12860000  0.81510000  0.25420000  1
  H  H597  1  0.16520000  0.85190000  0.25420000  1
  H  H598  1  0.18930000  0.88900000  0.27750000  1
  H  H599  1  0.22610000  0.92560000  0.27760000  1
  H  H600  1  0.62860000  0.31510000  0.25420000  1
  H  H601  1  0.66520000  0.35190000  0.25420000  1
  H  H602  1  0.68930000  0.38900000  0.27750000  1
  H  H603  1  0.72610000  0.42560000  0.27760000  1
  H  H604  1  0.62860000  0.81510000  0.75420000  1
  H  H605  1  0.66520000  0.85190000  0.75420000  1
  H  H606  1  0.68930000  0.88900000  0.77750000  1
  H  H607  1  0.72610000  0.92560000  0.77760000  1
  H  H608  1  0.59100000  0.76260000  0.63900000  1
  H  H609  1  0.59430000  0.72800000  0.64730000  1
  H  H610  1  0.61440000  0.75230000  0.66390000  1
  H  H611  1  0.62860000  0.43490000  0.49580000  1
  H  H612  1  0.66520000  0.39810000  0.49580000  1
  H  H613  1  0.68930000  0.36100000  0.47250000  1
  H  H614  1  0.72610000  0.32440000  0.47240000  1
  H  H615  1  0.59100000  0.48740000  0.61100000  1
  H  H616  1  0.59430000  0.52200000  0.60270000  1
  H  H617  1  0.61440000  0.49770000  0.58610000  1
  H  H618  1  0.62860000  0.93490000  0.99580000  1
  H  H619  1  0.66520000  0.89810000  0.99580000  1
  H  H620  1  0.68930000  0.86100000  0.97250000  1
  H  H621  1  0.72610000  0.82440000  0.97240000  1
  H  H622  1  0.12860000  0.43490000  0.99580000  1
  H  H623  1  0.16520000  0.39810000  0.99580000  1
  H  H624  1  0.18930000  0.36100000  0.97250000  1
  H  H625  1  0.22610000  0.32440000  0.97240000  1
  H  H626  1  0.09430000  0.52200000  0.10270000  1
  H  H627  1  0.12860000  0.93490000  0.49580000  1
  H  H628  1  0.16520000  0.89810000  0.49580000  1
  H  H629  1  0.18930000  0.86100000  0.47250000  1
  H  H630  1  0.22610000  0.82440000  0.47240000  1
  H  H631  1  0.09100000  0.98740000  0.61100000  1
  H  H632  1  0.09430000  0.02200000  0.60270000  1
  H  H633  1  0.11440000  0.99770000  0.58610000  1
  H  H634  1  0.49580000  0.43490000  0.62860000  1
  H  H635  1  0.49580000  0.39810000  0.66520000  1
  H  H636  1  0.47250000  0.36100000  0.68930000  1
  H  H637  1  0.47240000  0.32440000  0.72610000  1
  H  H638  1  0.49580000  0.93490000  0.12860000  1
  H  H639  1  0.49580000  0.89810000  0.16520000  1
  H  H640  1  0.47250000  0.86100000  0.18930000  1
  H  H641  1  0.47240000  0.82440000  0.22610000  1
  H  H642  1  0.61100000  0.98740000  0.09100000  1
  H  H643  1  0.60270000  0.02200000  0.09430000  1
  H  H644  1  0.58610000  0.99770000  0.11440000  1
  H  H645  1  0.99580000  0.43490000  0.12860000  1
  H  H646  1  0.99580000  0.39810000  0.16520000  1
  H  H647  1  0.97250000  0.36100000  0.18930000  1
  H  H648  1  0.97240000  0.32440000  0.22610000  1
  H  H649  1  0.11100000  0.48740000  0.09100000  1
  H  H650  1  0.08610000  0.49770000  0.11440000  1
  H  H651  1  0.99580000  0.93490000  0.62860000  1
  H  H652  1  0.99580000  0.89810000  0.66520000  1
  H  H653  1  0.97250000  0.86100000  0.68930000  1
  H  H654  1  0.97240000  0.82440000  0.72610000  1
  H  H655  1  0.75420000  0.31510000  0.12860000  1
  H  H656  1  0.75420000  0.35190000  0.16520000  1
  H  H657  1  0.77750000  0.38900000  0.18930000  1
  H  H658  1  0.77760000  0.42560000  0.22610000  1
  H  H659  1  0.75420000  0.81510000  0.62860000  1
  H  H660  1  0.75420000  0.85190000  0.66520000  1
  H  H661  1  0.77750000  0.88900000  0.68930000  1
  H  H662  1  0.77760000  0.92560000  0.72610000  1
  H  H663  1  0.25420000  0.31510000  0.62860000  1
  H  H664  1  0.25420000  0.35190000  0.66520000  1
  H  H665  1  0.27750000  0.38900000  0.68930000  1
  H  H666  1  0.27760000  0.42560000  0.72610000  1
  H  H667  1  0.25420000  0.81510000  0.12860000  1
  H  H668  1  0.25420000  0.85190000  0.16520000  1
  H  H669  1  0.27750000  0.88900000  0.18930000  1
  H  H670  1  0.27760000  0.92560000  0.22610000  1
  H  H671  1  0.25420000  0.93490000  0.62140000  1
  H  H672  1  0.25420000  0.89810000  0.58480000  1
  H  H673  1  0.27750000  0.86100000  0.56070000  1
  H  H674  1  0.27760000  0.82440000  0.52390000  1
  H  H675  1  0.25420000  0.43490000  0.12140000  1
  H  H676  1  0.25420000  0.39810000  0.08480000  1
  H  H677  1  0.27750000  0.36100000  0.06070000  1
  H  H678  1  0.27760000  0.32440000  0.02390000  1
  H  H679  1  0.13900000  0.48740000  0.15900000  1
  H  H680  1  0.14730000  0.52200000  0.15570000  1
  H  H681  1  0.16390000  0.49770000  0.13560000  1
  H  H682  1  0.75420000  0.93490000  0.12140000  1
  H  H683  1  0.75420000  0.89810000  0.08480000  1
  H  H684  1  0.77750000  0.86100000  0.06070000  1
  H  H685  1  0.77760000  0.82440000  0.02390000  1
  H  H686  1  0.75420000  0.43490000  0.62140000  1
  H  H687  1  0.75420000  0.39810000  0.58480000  1
  H  H688  1  0.77750000  0.36100000  0.56070000  1
  H  H689  1  0.77760000  0.32440000  0.52390000  1
  H  H690  1  0.99580000  0.81510000  0.12140000  1
  H  H691  1  0.99580000  0.85190000  0.08480000  1
  H  H692  1  0.97250000  0.88900000  0.06070000  1
  H  H693  1  0.97240000  0.92560000  0.02390000  1
  H  H694  1  0.11100000  0.76260000  0.15900000  1
  H  H695  1  0.10270000  0.72800000  0.15570000  1
  H  H696  1  0.08610000  0.75230000  0.13560000  1
  H  H697  1  0.99580000  0.31510000  0.62140000  1
  H  H698  1  0.99580000  0.35190000  0.58480000  1
  H  H699  1  0.97250000  0.38900000  0.56070000  1
  H  H700  1  0.97240000  0.42560000  0.52390000  1
  H  H701  1  0.11100000  0.26260000  0.65900000  1
  H  H702  1  0.10270000  0.22800000  0.65570000  1
  H  H703  1  0.08610000  0.25230000  0.63560000  1
  H  H704  1  0.49580000  0.81510000  0.62140000  1
  H  H705  1  0.49580000  0.85190000  0.58480000  1
  H  H706  1  0.47250000  0.88900000  0.56070000  1
  H  H707  1  0.47240000  0.92560000  0.52390000  1
  H  H708  1  0.49580000  0.31510000  0.12140000  1
  H  H709  1  0.49580000  0.35190000  0.08480000  1
  H  H710  1  0.47250000  0.38900000  0.06070000  1
  H  H711  1  0.47240000  0.42560000  0.02390000  1
  H  H712  1  0.61100000  0.26260000  0.15900000  1
  H  H713  1  0.60270000  0.22800000  0.15570000  1
  H  H714  1  0.58610000  0.25230000  0.13560000  1
  H  H715  1  0.62860000  0.49580000  0.43490000  1
  H  H716  1  0.66520000  0.49580000  0.39810000  1
  H  H717  1  0.68930000  0.47250000  0.36100000  1
  H  H718  1  0.72610000  0.47240000  0.32440000  1
  H  H719  1  0.62860000  0.99580000  0.93490000  1
  H  H720  1  0.66520000  0.99580000  0.89810000  1
  H  H721  1  0.68930000  0.97250000  0.86100000  1
  H  H722  1  0.72610000  0.97240000  0.82440000  1
  H  H723  1  0.59100000  0.11100000  0.98740000  1
  H  H724  1  0.59430000  0.10270000  0.02200000  1
  H  H725  1  0.61440000  0.08610000  0.99770000  1
  H  H726  1  0.12860000  0.49580000  0.93490000  1
  H  H727  1  0.16520000  0.49580000  0.89810000  1
  H  H728  1  0.18930000  0.47250000  0.86100000  1
  H  H729  1  0.22610000  0.47240000  0.82440000  1
  H  H730  1  0.12860000  0.99580000  0.43490000  1
  H  H731  1  0.16520000  0.99580000  0.39810000  1
  H  H732  1  0.18930000  0.97250000  0.36100000  1
  H  H733  1  0.22610000  0.97240000  0.32440000  1
  H  H734  1  0.12860000  0.75420000  0.31510000  1
  H  H735  1  0.16520000  0.75420000  0.35190000  1
  H  H736  1  0.18930000  0.77750000  0.38900000  1
  H  H737  1  0.22610000  0.77760000  0.42560000  1
  H  H738  1  0.12860000  0.25420000  0.81510000  1
  H  H739  1  0.16520000  0.25420000  0.85190000  1
  H  H740  1  0.18930000  0.27750000  0.88900000  1
  H  H741  1  0.22610000  0.27760000  0.92560000  1
  H  H742  1  0.62860000  0.75420000  0.81510000  1
  H  H743  1  0.66520000  0.75420000  0.85190000  1
  H  H744  1  0.68930000  0.77750000  0.88900000  1
  H  H745  1  0.72610000  0.77760000  0.92560000  1
  H  H746  1  0.59100000  0.63900000  0.76260000  1
  H  H747  1  0.59430000  0.64730000  0.72800000  1
  H  H748  1  0.61440000  0.66390000  0.75230000  1
  H  H749  1  0.62860000  0.25420000  0.31510000  1
  H  H750  1  0.66520000  0.25420000  0.35190000  1
  H  H751  1  0.68930000  0.27750000  0.38900000  1
  H  H752  1  0.72610000  0.27760000  0.42560000  1
  H  H753  1  0.59100000  0.13900000  0.26260000  1
  H  H754  1  0.59430000  0.14730000  0.22800000  1
  H  H755  1  0.61440000  0.16390000  0.25230000  1
  H  H756  1  0.62140000  0.25420000  0.93490000  1
  H  H757  1  0.58480000  0.25420000  0.89810000  1
  H  H758  1  0.56070000  0.27750000  0.86100000  1
  H  H759  1  0.52390000  0.27760000  0.82440000  1
  H  H760  1  0.65900000  0.13900000  0.98740000  1
  H  H761  1  0.65570000  0.14730000  0.02200000  1
  H  H762  1  0.63560000  0.16390000  0.99770000  1
  H  H763  1  0.62140000  0.75420000  0.43490000  1
  H  H764  1  0.58480000  0.75420000  0.39810000  1
  H  H765  1  0.56070000  0.77750000  0.36100000  1
  H  H766  1  0.52390000  0.77760000  0.32440000  1
  H  H767  1  0.12140000  0.25420000  0.43490000  1
  H  H768  1  0.08480000  0.25420000  0.39810000  1
  H  H769  1  0.06070000  0.27750000  0.36100000  1
  H  H770  1  0.02390000  0.27760000  0.32440000  1
  H  H771  1  0.15900000  0.13900000  0.48740000  1
  H  H772  1  0.15570000  0.14730000  0.52200000  1
  H  H773  1  0.13560000  0.16390000  0.49770000  1
  H  H774  1  0.12140000  0.75420000  0.93490000  1
  H  H775  1  0.08480000  0.75420000  0.89810000  1
  H  H776  1  0.06070000  0.77750000  0.86100000  1
  H  H777  1  0.02390000  0.77760000  0.82440000  1
  H  H778  1  0.15900000  0.63900000  0.98740000  1
  H  H779  1  0.15570000  0.64730000  0.02200000  1
  H  H780  1  0.13560000  0.66390000  0.99770000  1
  H  H781  1  0.12140000  0.99580000  0.81510000  1
  H  H782  1  0.08480000  0.99580000  0.85190000  1
  H  H783  1  0.06070000  0.97250000  0.88900000  1
  H  H784  1  0.02390000  0.97240000  0.92560000  1
  H  H785  1  0.12140000  0.49580000  0.31510000  1
  H  H786  1  0.08480000  0.49580000  0.35190000  1
  H  H787  1  0.06070000  0.47250000  0.38900000  1
  H  H788  1  0.02390000  0.47240000  0.42560000  1
  H  H789  1  0.15900000  0.61100000  0.26260000  1
  H  H790  1  0.15570000  0.60270000  0.22800000  1
  H  H791  1  0.13560000  0.58610000  0.25230000  1
  H  H792  1  0.62140000  0.99580000  0.31510000  1
  H  H793  1  0.58480000  0.99580000  0.35190000  1
  H  H794  1  0.56070000  0.97250000  0.38900000  1
  H  H795  1  0.52390000  0.97240000  0.42560000  1
  H  H796  1  0.62140000  0.49580000  0.81510000  1
  H  H797  1  0.58480000  0.49580000  0.85190000  1
  H  H798  1  0.56070000  0.47250000  0.88900000  1
  H  H799  1  0.52390000  0.47240000  0.92560000  1
  H  H800  1  0.43490000  0.62860000  0.49580000  1
  H  H801  1  0.39810000  0.66520000  0.49580000  1
  H  H802  1  0.36100000  0.68930000  0.47250000  1
  H  H803  1  0.32440000  0.72610000  0.47240000  1
  H  H804  1  0.43490000  0.12860000  0.99580000  1
  H  H805  1  0.39810000  0.16520000  0.99580000  1
  H  H806  1  0.36100000  0.18930000  0.97250000  1
  H  H807  1  0.32440000  0.22610000  0.97240000  1
  H  H808  1  0.93490000  0.62860000  0.99580000  1
  H  H809  1  0.89810000  0.66520000  0.99580000  1
  H  H810  1  0.86100000  0.68930000  0.97250000  1
  H  H811  1  0.82440000  0.72610000  0.97240000  1
  H  H812  1  0.93490000  0.12860000  0.49580000  1
  H  H813  1  0.89810000  0.16520000  0.49580000  1
  H  H814  1  0.86100000  0.18930000  0.47250000  1
  H  H815  1  0.82440000  0.22610000  0.47240000  1
  H  H816  1  0.31510000  0.12860000  0.75420000  1
  H  H817  1  0.35190000  0.16520000  0.75420000  1
  H  H818  1  0.38900000  0.18930000  0.77750000  1
  H  H819  1  0.42560000  0.22610000  0.77760000  1
  H  H820  1  0.31510000  0.62860000  0.25420000  1
  H  H821  1  0.35190000  0.66520000  0.25420000  1
  H  H822  1  0.38900000  0.68930000  0.27750000  1
  H  H823  1  0.42560000  0.72610000  0.27760000  1
  H  H824  1  0.26260000  0.59100000  0.13900000  1
  H  H825  1  0.22800000  0.59430000  0.14730000  1
  H  H826  1  0.25230000  0.61440000  0.16390000  1
  H  H827  1  0.81510000  0.12860000  0.25420000  1
  H  H828  1  0.85190000  0.16520000  0.25420000  1
  H  H829  1  0.88900000  0.18930000  0.27750000  1
  H  H830  1  0.92560000  0.22610000  0.27760000  1
  H  H831  1  0.81510000  0.62860000  0.75420000  1
  H  H832  1  0.85190000  0.66520000  0.75420000  1
  H  H833  1  0.88900000  0.68930000  0.77750000  1
  H  H834  1  0.92560000  0.72610000  0.77760000  1
  H  H835  1  0.76260000  0.59100000  0.63900000  1
  H  H836  1  0.72800000  0.59430000  0.64730000  1
  H  H837  1  0.75230000  0.61440000  0.66390000  1
  H  H838  1  0.93490000  0.62140000  0.25420000  1
  H  H839  1  0.89810000  0.58480000  0.25420000  1
  H  H840  1  0.86100000  0.56070000  0.27750000  1
  H  H841  1  0.82440000  0.52390000  0.27760000  1
  H  H842  1  0.93490000  0.12140000  0.75420000  1
  H  H843  1  0.89810000  0.08480000  0.75420000  1
  H  H844  1  0.86100000  0.06070000  0.77750000  1
  H  H845  1  0.82440000  0.02390000  0.77760000  1
  H  H846  1  0.98740000  0.15900000  0.63900000  1
  H  H847  1  0.02200000  0.15570000  0.64730000  1
  H  H848  1  0.99770000  0.13560000  0.66390000  1
  H  H849  1  0.43490000  0.62140000  0.75420000  1
  H  H850  1  0.39810000  0.58480000  0.75420000  1
  H  H851  1  0.36100000  0.56070000  0.77750000  1
  H  H852  1  0.32440000  0.52390000  0.77760000  1
  H  H853  1  0.43490000  0.12140000  0.25420000  1
  H  H854  1  0.39810000  0.08480000  0.25420000  1
  H  H855  1  0.36100000  0.06070000  0.27750000  1
  H  H856  1  0.32440000  0.02390000  0.27760000  1
  H  H857  1  0.81510000  0.12140000  0.99580000  1
  H  H858  1  0.85190000  0.08480000  0.99580000  1
  H  H859  1  0.88900000  0.06070000  0.97250000  1
  H  H860  1  0.92560000  0.02390000  0.97240000  1
  H  H861  1  0.76260000  0.15900000  0.11100000  1
  H  H862  1  0.72800000  0.15570000  0.10270000  1
  H  H863  1  0.75230000  0.13560000  0.08610000  1
  H  H864  1  0.81510000  0.62140000  0.49580000  1
  H  H865  1  0.85190000  0.58480000  0.49580000  1
  H  H866  1  0.88900000  0.56070000  0.47250000  1
  H  H867  1  0.92560000  0.52390000  0.47240000  1
  H  H868  1  0.76260000  0.65900000  0.61100000  1
  H  H869  1  0.72800000  0.65570000  0.60270000  1
  H  H870  1  0.75230000  0.63560000  0.58610000  1
  H  H871  1  0.31510000  0.12140000  0.49580000  1
  H  H872  1  0.35190000  0.08480000  0.49580000  1
  H  H873  1  0.38900000  0.06070000  0.47250000  1
  H  H874  1  0.42560000  0.02390000  0.47240000  1
  H  H875  1  0.26260000  0.15900000  0.61100000  1
  H  H876  1  0.22800000  0.15570000  0.60270000  1
  H  H877  1  0.25230000  0.13560000  0.58610000  1
  H  H878  1  0.31510000  0.62140000  0.99580000  1
  H  H879  1  0.35190000  0.58480000  0.99580000  1
  H  H880  1  0.38900000  0.56070000  0.97250000  1
  H  H881  1  0.42560000  0.52390000  0.97240000  1
  H  H882  1  0.26260000  0.65900000  0.11100000  1
  H  H883  1  0.22800000  0.65570000  0.10270000  1
  H  H884  1  0.25230000  0.63560000  0.08610000  1
  H  H885  1  0.68490000  0.24580000  0.87140000  1
  H  H886  1  0.64810000  0.24580000  0.83480000  1
  H  H887  1  0.61100000  0.22250000  0.81070000  1
  H  H888  1  0.57440000  0.22240000  0.77390000  1
  H  H889  1  0.68490000  0.74580000  0.37140000  1
  H  H890  1  0.64810000  0.74580000  0.33480000  1
  H  H891  1  0.61100000  0.72250000  0.31070000  1
  H  H892  1  0.57440000  0.72240000  0.27390000  1
  H  H893  1  0.73740000  0.86100000  0.40900000  1
  H  H894  1  0.77200000  0.85270000  0.40570000  1
  H  H895  1  0.74770000  0.83610000  0.38560000  1
  H  H896  1  0.18490000  0.24580000  0.37140000  1
  H  H897  1  0.14810000  0.24580000  0.33480000  1
  H  H898  1  0.11100000  0.22250000  0.31070000  1
  H  H899  1  0.07440000  0.22240000  0.27390000  1
  H  H900  1  0.23740000  0.36100000  0.40900000  1
  H  H901  1  0.27200000  0.35270000  0.40570000  1
  H  H902  1  0.24770000  0.33610000  0.38560000  1
  H  H903  1  0.18490000  0.74580000  0.87140000  1
  H  H904  1  0.14810000  0.74580000  0.83480000  1
  H  H905  1  0.11100000  0.72250000  0.81070000  1
  H  H906  1  0.07440000  0.72240000  0.77390000  1
  H  H907  1  0.23740000  0.86100000  0.90900000  1
  H  H908  1  0.27200000  0.85270000  0.90570000  1
  H  H909  1  0.24770000  0.83610000  0.88560000  1
  H  H910  1  0.56510000  0.50420000  0.37140000  1
  H  H911  1  0.60190000  0.50420000  0.33480000  1
  H  H912  1  0.63900000  0.52750000  0.31070000  1
  H  H913  1  0.67560000  0.52760000  0.27390000  1
  H  H914  1  0.56510000  0.00420000  0.87140000  1
  H  H915  1  0.60190000  0.00420000  0.83480000  1
  H  H916  1  0.63900000  0.02750000  0.81070000  1
  H  H917  1  0.67560000  0.02760000  0.77390000  1
  H  H918  1  0.06510000  0.50420000  0.87140000  1
  H  H919  1  0.10190000  0.50420000  0.83480000  1
  H  H920  1  0.13900000  0.52750000  0.81070000  1
  H  H921  1  0.17560000  0.52760000  0.77390000  1
  H  H922  1  0.01260000  0.38900000  0.90900000  1
  H  H923  1  0.97800000  0.39730000  0.90570000  1
  H  H924  1  0.00230000  0.41390000  0.88560000  1
  H  H925  1  0.06510000  0.00420000  0.37140000  1
  H  H926  1  0.10190000  0.00420000  0.33480000  1
  H  H927  1  0.13900000  0.02750000  0.31070000  1
  H  H928  1  0.17560000  0.02760000  0.27390000  1
  H  H929  1  0.01260000  0.88900000  0.40900000  1
  H  H930  1  0.97800000  0.89730000  0.40570000  1
  H  H931  1  0.00230000  0.91390000  0.38560000  1
  H  H932  1  0.18490000  0.00420000  0.87860000  1
  H  H933  1  0.14810000  0.00420000  0.91520000  1
  H  H934  1  0.11100000  0.02750000  0.93930000  1
  H  H935  1  0.07440000  0.02760000  0.97610000  1
  H  H936  1  0.23740000  0.88900000  0.84100000  1
  H  H937  1  0.27200000  0.89730000  0.84430000  1
  H  H938  1  0.24770000  0.91390000  0.86440000  1
  H  H939  1  0.18490000  0.50420000  0.37860000  1
  H  H940  1  0.14810000  0.50420000  0.41520000  1
  H  H941  1  0.11100000  0.52750000  0.43930000  1
  H  H942  1  0.07440000  0.52760000  0.47610000  1
  H  H943  1  0.23740000  0.38900000  0.34100000  1
  H  H944  1  0.27200000  0.39730000  0.34430000  1
  H  H945  1  0.24770000  0.41390000  0.36440000  1
  H  H946  1  0.68490000  0.00420000  0.37860000  1
  H  H947  1  0.64810000  0.00420000  0.41520000  1
  H  H948  1  0.61100000  0.02750000  0.43930000  1
  H  H949  1  0.57440000  0.02760000  0.47610000  1
  H  H950  1  0.73740000  0.88900000  0.34100000  1
  H  H951  1  0.77200000  0.89730000  0.34430000  1
  H  H952  1  0.74770000  0.91390000  0.36440000  1
  H  H953  1  0.68490000  0.50420000  0.87860000  1
  H  H954  1  0.64810000  0.50420000  0.91520000  1
  H  H955  1  0.61100000  0.52750000  0.93930000  1
  H  H956  1  0.57440000  0.52760000  0.97610000  1
  H  H957  1  0.73740000  0.38900000  0.84100000  1
  H  H958  1  0.77200000  0.39730000  0.84430000  1
  H  H959  1  0.74770000  0.41390000  0.86440000  1
  H  H960  1  0.06510000  0.74580000  0.37860000  1
  H  H961  1  0.10190000  0.74580000  0.41520000  1
  H  H962  1  0.13900000  0.72250000  0.43930000  1
  H  H963  1  0.17560000  0.72240000  0.47610000  1
  H  H964  1  0.01260000  0.86100000  0.34100000  1
  H  H965  1  0.97800000  0.85270000  0.34430000  1
  H  H966  1  0.00230000  0.83610000  0.36440000  1
  H  H967  1  0.06510000  0.24580000  0.87860000  1
  H  H968  1  0.10190000  0.24580000  0.91520000  1
  H  H969  1  0.13900000  0.22250000  0.93930000  1
  H  H970  1  0.17560000  0.22240000  0.97610000  1
  H  H971  1  0.01260000  0.36100000  0.84100000  1
  H  H972  1  0.97800000  0.35270000  0.84430000  1
  H  H973  1  0.00230000  0.33610000  0.86440000  1
  H  H974  1  0.56510000  0.74580000  0.87860000  1
  H  H975  1  0.60190000  0.74580000  0.91520000  1
  H  H976  1  0.63900000  0.72250000  0.93930000  1
  H  H977  1  0.67560000  0.72240000  0.97610000  1
  H  H978  1  0.51260000  0.86100000  0.84100000  1
  H  H979  1  0.47800000  0.85270000  0.84430000  1
  H  H980  1  0.50230000  0.83610000  0.86440000  1
  H  H981  1  0.56510000  0.24580000  0.37860000  1
  H  H982  1  0.60190000  0.24580000  0.41520000  1
  H  H983  1  0.63900000  0.22250000  0.43930000  1
  H  H984  1  0.67560000  0.22240000  0.47610000  1
  H  H985  1  0.51260000  0.36100000  0.34100000  1
  H  H986  1  0.47800000  0.35270000  0.34430000  1
  H  H987  1  0.50230000  0.33610000  0.36440000  1
  H  H988  1  0.74580000  0.37860000  0.06510000  1
  H  H989  1  0.74580000  0.41520000  0.10190000  1
  H  H990  1  0.72250000  0.43930000  0.13900000  1
  H  H991  1  0.72240000  0.47610000  0.17560000  1
  H  H992  1  0.86100000  0.34100000  0.01260000  1
  H  H993  1  0.85270000  0.34430000  0.97800000  1
  H  H994  1  0.83610000  0.36440000  0.00230000  1
  H  H995  1  0.74580000  0.87860000  0.56510000  1
  H  H996  1  0.74580000  0.91520000  0.60190000  1
  H  H997  1  0.72250000  0.93930000  0.63900000  1
  H  H998  1  0.72240000  0.97610000  0.67560000  1
  H  H999  1  0.86100000  0.84100000  0.51260000  1
  H  H1000  1  0.85270000  0.84430000  0.47800000  1
  H  H1001  1  0.83610000  0.86440000  0.50230000  1
  H  H1002  1  0.24580000  0.37860000  0.56510000  1
  H  H1003  1  0.24580000  0.41520000  0.60190000  1
  H  H1004  1  0.22250000  0.43930000  0.63900000  1
  H  H1005  1  0.22240000  0.47610000  0.67560000  1
  H  H1006  1  0.24580000  0.87860000  0.06510000  1
  H  H1007  1  0.24580000  0.91520000  0.10190000  1
  H  H1008  1  0.22250000  0.93930000  0.13900000  1
  H  H1009  1  0.22240000  0.97610000  0.17560000  1
  H  H1010  1  0.00420000  0.87860000  0.18490000  1
  H  H1011  1  0.00420000  0.91520000  0.14810000  1
  H  H1012  1  0.02750000  0.93930000  0.11100000  1
  H  H1013  1  0.02760000  0.97610000  0.07440000  1
  H  H1014  1  0.00420000  0.37860000  0.68490000  1
  H  H1015  1  0.00420000  0.41520000  0.64810000  1
  H  H1016  1  0.02750000  0.43930000  0.61100000  1
  H  H1017  1  0.02760000  0.47610000  0.57440000  1
  H  H1018  1  0.88900000  0.34100000  0.73740000  1
  H  H1019  1  0.89730000  0.34430000  0.77200000  1
  H  H1020  1  0.91390000  0.36440000  0.74770000  1
  H  H1021  1  0.50420000  0.87860000  0.68490000  1
  H  H1022  1  0.50420000  0.91520000  0.64810000  1
  H  H1023  1  0.52750000  0.93930000  0.61100000  1
  H  H1024  1  0.52760000  0.97610000  0.57440000  1
  H  H1025  1  0.38900000  0.84100000  0.73740000  1
  H  H1026  1  0.39730000  0.84430000  0.77200000  1
  H  H1027  1  0.41390000  0.86440000  0.74770000  1
  H  H1028  1  0.50420000  0.37860000  0.18490000  1
  H  H1029  1  0.50420000  0.41520000  0.14810000  1
  H  H1030  1  0.52750000  0.43930000  0.11100000  1
  H  H1031  1  0.52760000  0.47610000  0.07440000  1
  H  H1032  1  0.50420000  0.37140000  0.56510000  1
  H  H1033  1  0.50420000  0.33480000  0.60190000  1
  H  H1034  1  0.52750000  0.31070000  0.63900000  1
  H  H1035  1  0.52760000  0.27390000  0.67560000  1
  H  H1036  1  0.50420000  0.87140000  0.06510000  1
  H  H1037  1  0.50420000  0.83480000  0.10190000  1
  H  H1038  1  0.52750000  0.81070000  0.13900000  1
  H  H1039  1  0.52760000  0.77390000  0.17560000  1
  H  H1040  1  0.38900000  0.90900000  0.01260000  1
  H  H1041  1  0.39730000  0.90570000  0.97800000  1
  H  H1042  1  0.41390000  0.88560000  0.00230000  1
  H  H1043  1  0.00420000  0.37140000  0.06510000  1
  H  H1044  1  0.00420000  0.33480000  0.10190000  1
  H  H1045  1  0.02750000  0.31070000  0.13900000  1
  H  H1046  1  0.02760000  0.27390000  0.17560000  1
  H  H1047  1  0.00420000  0.87140000  0.56510000  1
  H  H1048  1  0.00420000  0.83480000  0.60190000  1
  H  H1049  1  0.02750000  0.81070000  0.63900000  1
  H  H1050  1  0.02760000  0.77390000  0.67560000  1
  H  H1051  1  0.88900000  0.90900000  0.51260000  1
  H  H1052  1  0.89730000  0.90570000  0.47800000  1
  H  H1053  1  0.91390000  0.88560000  0.50230000  1
  H  H1054  1  0.24580000  0.87140000  0.68490000  1
  H  H1055  1  0.24580000  0.83480000  0.64810000  1
  H  H1056  1  0.22250000  0.81070000  0.61100000  1
  H  H1057  1  0.22240000  0.77390000  0.57440000  1
  H  H1058  1  0.24580000  0.37140000  0.18490000  1
  H  H1059  1  0.24580000  0.33480000  0.14810000  1
  H  H1060  1  0.22250000  0.31070000  0.11100000  1
  H  H1061  1  0.22240000  0.27390000  0.07440000  1
  H  H1062  1  0.36100000  0.40900000  0.23740000  1
  H  H1063  1  0.35270000  0.40570000  0.27200000  1
  H  H1064  1  0.33610000  0.38560000  0.24770000  1
  H  H1065  1  0.74580000  0.87140000  0.18490000  1
  H  H1066  1  0.74580000  0.83480000  0.14810000  1
  H  H1067  1  0.72250000  0.81070000  0.11100000  1
  H  H1068  1  0.72240000  0.77390000  0.07440000  1
  H  H1069  1  0.86100000  0.90900000  0.23740000  1
  H  H1070  1  0.85270000  0.90570000  0.27200000  1
  H  H1071  1  0.83610000  0.88560000  0.24770000  1
  H  H1072  1  0.74580000  0.37140000  0.68490000  1
  H  H1073  1  0.74580000  0.33480000  0.64810000  1
  H  H1074  1  0.72250000  0.31070000  0.61100000  1
  H  H1075  1  0.72240000  0.27390000  0.57440000  1
  H  H1076  1  0.86100000  0.40900000  0.73740000  1
  H  H1077  1  0.85270000  0.40570000  0.77200000  1
  H  H1078  1  0.83610000  0.38560000  0.74770000  1
  H  H1079  1  0.87860000  0.18490000  0.00420000  1
  H  H1080  1  0.91520000  0.14810000  0.00420000  1
  H  H1081  1  0.93930000  0.11100000  0.02750000  1
  H  H1082  1  0.97610000  0.07440000  0.02760000  1
  H  H1083  1  0.84100000  0.23740000  0.88900000  1
  H  H1084  1  0.84430000  0.27200000  0.89730000  1
  H  H1085  1  0.86440000  0.24770000  0.91390000  1
  H  H1086  1  0.87860000  0.68490000  0.50420000  1
  H  H1087  1  0.91520000  0.64810000  0.50420000  1
  H  H1088  1  0.93930000  0.61100000  0.52750000  1
  H  H1089  1  0.97610000  0.57440000  0.52760000  1
  H  H1090  1  0.37860000  0.18490000  0.50420000  1
  H  H1091  1  0.41520000  0.14810000  0.50420000  1
  H  H1092  1  0.43930000  0.11100000  0.52750000  1
  H  H1093  1  0.47610000  0.07440000  0.52760000  1
  H  H1094  1  0.37860000  0.68490000  0.00420000  1
  H  H1095  1  0.41520000  0.64810000  0.00420000  1
  H  H1096  1  0.43930000  0.61100000  0.02750000  1
  H  H1097  1  0.47610000  0.57440000  0.02760000  1
  H  H1098  1  0.37860000  0.06510000  0.74580000  1
  H  H1099  1  0.41520000  0.10190000  0.74580000  1
  H  H1100  1  0.43930000  0.13900000  0.72250000  1
  H  H1101  1  0.47610000  0.17560000  0.72240000  1
  H  H1102  1  0.37860000  0.56510000  0.24580000  1
  H  H1103  1  0.41520000  0.60190000  0.24580000  1
  H  H1104  1  0.43930000  0.63900000  0.22250000  1
  H  H1105  1  0.47610000  0.67560000  0.22240000  1
  H  H1106  1  0.87860000  0.06510000  0.24580000  1
  H  H1107  1  0.91520000  0.10190000  0.24580000  1
  H  H1108  1  0.93930000  0.13900000  0.22250000  1
  H  H1109  1  0.97610000  0.17560000  0.22240000  1
  H  H1110  1  0.87860000  0.56510000  0.74580000  1
  H  H1111  1  0.91520000  0.60190000  0.74580000  1
  H  H1112  1  0.93930000  0.63900000  0.72250000  1
  H  H1113  1  0.97610000  0.67560000  0.72240000  1
  H  H1114  1  0.87140000  0.68490000  0.24580000  1
  H  H1115  1  0.83480000  0.64810000  0.24580000  1
  H  H1116  1  0.81070000  0.61100000  0.22250000  1
  H  H1117  1  0.77390000  0.57440000  0.22240000  1
  H  H1118  1  0.87140000  0.18490000  0.74580000  1
  H  H1119  1  0.83480000  0.14810000  0.74580000  1
  H  H1120  1  0.81070000  0.11100000  0.72250000  1
  H  H1121  1  0.77390000  0.07440000  0.72240000  1
  H  H1122  1  0.37140000  0.68490000  0.74580000  1
  H  H1123  1  0.33480000  0.64810000  0.74580000  1
  H  H1124  1  0.31070000  0.61100000  0.72250000  1
  H  H1125  1  0.27390000  0.57440000  0.72240000  1
  H  H1126  1  0.40900000  0.73740000  0.86100000  1
  H  H1127  1  0.40570000  0.77200000  0.85270000  1
  H  H1128  1  0.38560000  0.74770000  0.83610000  1
  H  H1129  1  0.37140000  0.18490000  0.24580000  1
  H  H1130  1  0.33480000  0.14810000  0.24580000  1
  H  H1131  1  0.31070000  0.11100000  0.22250000  1
  H  H1132  1  0.27390000  0.07440000  0.22240000  1
  H  H1133  1  0.37140000  0.56510000  0.50420000  1
  H  H1134  1  0.33480000  0.60190000  0.50420000  1
  H  H1135  1  0.31070000  0.63900000  0.52750000  1
  H  H1136  1  0.27390000  0.67560000  0.52760000  1
  H  H1137  1  0.37140000  0.06510000  0.00420000  1
  H  H1138  1  0.33480000  0.10190000  0.00420000  1
  H  H1139  1  0.31070000  0.13900000  0.02750000  1
  H  H1140  1  0.27390000  0.17560000  0.02760000  1
  H  H1141  1  0.40900000  0.01260000  0.88900000  1
  H  H1142  1  0.40570000  0.97800000  0.89730000  1
  H  H1143  1  0.38560000  0.00230000  0.91390000  1
  H  H1144  1  0.87140000  0.56510000  0.00420000  1
  H  H1145  1  0.83480000  0.60190000  0.00420000  1
  H  H1146  1  0.81070000  0.63900000  0.02750000  1
  H  H1147  1  0.77390000  0.67560000  0.02760000  1
  H  H1148  1  0.87140000  0.06510000  0.50420000  1
  H  H1149  1  0.83480000  0.10190000  0.50420000  1
  H  H1150  1  0.81070000  0.13900000  0.52750000  1
  H  H1151  1  0.77390000  0.17560000  0.52760000  1
  C  C1152  1  0.50247000  0.58549000  0.37698000  1
  C  C1153  1  0.50246000  0.60745000  0.35512000  1
  C  C1154  1  0.51624000  0.65668000  0.31361000  1
  C  C1155  1  0.51637000  0.67847000  0.29158000  1
  C  C1156  1  0.50247000  0.08549000  0.87698000  1
  C  C1157  1  0.50246000  0.10745000  0.85512000  1
  C  C1158  1  0.51624000  0.15668000  0.81361000  1
  C  C1159  1  0.51637000  0.17847000  0.79158000  1
  C  C1160  1  0.00247000  0.58549000  0.87698000  1
  C  C1161  1  0.00246000  0.60745000  0.85512000  1
  C  C1162  1  0.01624000  0.65668000  0.81361000  1
  C  C1163  1  0.01637000  0.67847000  0.79158000  1
  C  C1164  1  0.00247000  0.08549000  0.37698000  1
  C  C1165  1  0.00246000  0.10745000  0.35512000  1
  C  C1166  1  0.01624000  0.15668000  0.31361000  1
  C  C1167  1  0.01637000  0.17847000  0.29158000  1
  C  C1168  1  0.24753000  0.66451000  0.87698000  1
  C  C1169  1  0.24754000  0.64255000  0.85512000  1
  C  C1170  1  0.23376000  0.59332000  0.81361000  1
  C  C1171  1  0.23363000  0.57153000  0.79158000  1
  C  C1172  1  0.24753000  0.16451000  0.37698000  1
  C  C1173  1  0.24754000  0.14255000  0.35512000  1
  C  C1174  1  0.23376000  0.09332000  0.31361000  1
  C  C1175  1  0.23363000  0.07153000  0.29158000  1
  C  C1176  1  0.74753000  0.66451000  0.37698000  1
  C  C1177  1  0.74754000  0.64255000  0.35512000  1
  C  C1178  1  0.73376000  0.59332000  0.31361000  1
  C  C1179  1  0.73363000  0.57153000  0.29158000  1
  C  C1180  1  0.74753000  0.16451000  0.87698000  1
  C  C1181  1  0.74754000  0.14255000  0.85512000  1
  C  C1182  1  0.73376000  0.09332000  0.81361000  1
  C  C1183  1  0.73363000  0.07153000  0.79158000  1
  C  C1184  1  0.74753000  0.08549000  0.37302000  1
  C  C1185  1  0.74754000  0.10745000  0.39488000  1
  C  C1186  1  0.73376000  0.15668000  0.43639000  1
  C  C1187  1  0.73363000  0.17847000  0.45842000  1
  C  C1188  1  0.74753000  0.58549000  0.87302000  1
  C  C1189  1  0.74754000  0.60745000  0.89488000  1
  C  C1190  1  0.73376000  0.65668000  0.93639000  1
  C  C1191  1  0.73363000  0.67847000  0.95842000  1
  C  C1192  1  0.24753000  0.08549000  0.87302000  1
  C  C1193  1  0.24754000  0.10745000  0.89488000  1
  C  C1194  1  0.23376000  0.15668000  0.93639000  1
  C  C1195  1  0.23363000  0.17847000  0.95842000  1
  C  C1196  1  0.24753000  0.58549000  0.37302000  1
  C  C1197  1  0.24754000  0.60745000  0.39488000  1
  C  C1198  1  0.23376000  0.65668000  0.43639000  1
  C  C1199  1  0.23363000  0.67847000  0.45842000  1
  C  C1200  1  0.00247000  0.16451000  0.87302000  1
  C  C1201  1  0.00246000  0.14255000  0.89488000  1
  C  C1202  1  0.01624000  0.09332000  0.93639000  1
  C  C1203  1  0.01637000  0.07153000  0.95842000  1
  C  C1204  1  0.00247000  0.66451000  0.37302000  1
  C  C1205  1  0.00246000  0.64255000  0.39488000  1
  C  C1206  1  0.01624000  0.59332000  0.43639000  1
  C  C1207  1  0.01637000  0.57153000  0.45842000  1
  C  C1208  1  0.50247000  0.16451000  0.37302000  1
  C  C1209  1  0.50246000  0.14255000  0.39488000  1
  C  C1210  1  0.51624000  0.09332000  0.43639000  1
  C  C1211  1  0.51637000  0.07153000  0.45842000  1
  C  C1212  1  0.50247000  0.66451000  0.87302000  1
  C  C1213  1  0.50246000  0.64255000  0.89488000  1
  C  C1214  1  0.51624000  0.59332000  0.93639000  1
  C  C1215  1  0.51637000  0.57153000  0.95842000  1
  C  C1216  1  0.37698000  0.50247000  0.58549000  1
  C  C1217  1  0.35512000  0.50246000  0.60745000  1
  C  C1218  1  0.31361000  0.51624000  0.65668000  1
  C  C1219  1  0.29158000  0.51637000  0.67847000  1
  C  C1220  1  0.37698000  0.00247000  0.08549000  1
  C  C1221  1  0.35512000  0.00246000  0.10745000  1
  C  C1222  1  0.31361000  0.01624000  0.15668000  1
  C  C1223  1  0.29158000  0.01637000  0.17847000  1
  C  C1224  1  0.87698000  0.50247000  0.08549000  1
  C  C1225  1  0.85512000  0.50246000  0.10745000  1
  C  C1226  1  0.81361000  0.51624000  0.15668000  1
  C  C1227  1  0.79158000  0.51637000  0.17847000  1
  C  C1228  1  0.87698000  0.00247000  0.58549000  1
  C  C1229  1  0.85512000  0.00246000  0.60745000  1
  C  C1230  1  0.81361000  0.01624000  0.65668000  1
  C  C1231  1  0.79158000  0.01637000  0.67847000  1
  C  C1232  1  0.87698000  0.24753000  0.66451000  1
  C  C1233  1  0.85512000  0.24754000  0.64255000  1
  C  C1234  1  0.81361000  0.23376000  0.59332000  1
  C  C1235  1  0.79158000  0.23363000  0.57153000  1
  C  C1236  1  0.87698000  0.74753000  0.16451000  1
  C  C1237  1  0.85512000  0.74754000  0.14255000  1
  C  C1238  1  0.81361000  0.73376000  0.09332000  1
  C  C1239  1  0.79158000  0.73363000  0.07153000  1
  C  C1240  1  0.37698000  0.24753000  0.16451000  1
  C  C1241  1  0.35512000  0.24754000  0.14255000  1
  C  C1242  1  0.31361000  0.23376000  0.09332000  1
  C  C1243  1  0.29158000  0.23363000  0.07153000  1
  C  C1244  1  0.37698000  0.74753000  0.66451000  1
  C  C1245  1  0.35512000  0.74754000  0.64255000  1
  C  C1246  1  0.31361000  0.73376000  0.59332000  1
  C  C1247  1  0.29158000  0.73363000  0.57153000  1
  C  C1248  1  0.37302000  0.74753000  0.08549000  1
  C  C1249  1  0.39488000  0.74754000  0.10745000  1
  C  C1250  1  0.43639000  0.73376000  0.15668000  1
  C  C1251  1  0.45842000  0.73363000  0.17847000  1
  C  C1252  1  0.37302000  0.24753000  0.58549000  1
  C  C1253  1  0.39488000  0.24754000  0.60745000  1
  C  C1254  1  0.43639000  0.23376000  0.65668000  1
  C  C1255  1  0.45842000  0.23363000  0.67847000  1
  C  C1256  1  0.87302000  0.74753000  0.58549000  1
  C  C1257  1  0.89488000  0.74754000  0.60745000  1
  C  C1258  1  0.93639000  0.73376000  0.65668000  1
  C  C1259  1  0.95842000  0.73363000  0.67847000  1
  C  C1260  1  0.87302000  0.24753000  0.08549000  1
  C  C1261  1  0.89488000  0.24754000  0.10745000  1
  C  C1262  1  0.93639000  0.23376000  0.15668000  1
  C  C1263  1  0.95842000  0.23363000  0.17847000  1
  C  C1264  1  0.87302000  0.00247000  0.16451000  1
  C  C1265  1  0.89488000  0.00246000  0.14255000  1
  C  C1266  1  0.93639000  0.01624000  0.09332000  1
  C  C1267  1  0.95842000  0.01637000  0.07153000  1
  C  C1268  1  0.87302000  0.50247000  0.66451000  1
  C  C1269  1  0.89488000  0.50246000  0.64255000  1
  C  C1270  1  0.93639000  0.51624000  0.59332000  1
  C  C1271  1  0.95842000  0.51637000  0.57153000  1
  C  C1272  1  0.37302000  0.00247000  0.66451000  1
  C  C1273  1  0.39488000  0.00246000  0.64255000  1
  C  C1274  1  0.43639000  0.01624000  0.59332000  1
  C  C1275  1  0.45842000  0.01637000  0.57153000  1
  C  C1276  1  0.37302000  0.50247000  0.16451000  1
  C  C1277  1  0.39488000  0.50246000  0.14255000  1
  C  C1278  1  0.43639000  0.51624000  0.09332000  1
  C  C1279  1  0.45842000  0.51637000  0.07153000  1
  C  C1280  1  0.58549000  0.37698000  0.50247000  1
  C  C1281  1  0.60745000  0.35512000  0.50246000  1
  C  C1282  1  0.65668000  0.31361000  0.51624000  1
  C  C1283  1  0.67847000  0.29158000  0.51637000  1
  C  C1284  1  0.58549000  0.87698000  0.00247000  1
  C  C1285  1  0.60745000  0.85512000  0.00246000  1
  C  C1286  1  0.65668000  0.81361000  0.01624000  1
  C  C1287  1  0.67847000  0.79158000  0.01637000  1
  C  C1288  1  0.08549000  0.37698000  0.00247000  1
  C  C1289  1  0.10745000  0.35512000  0.00246000  1
  C  C1290  1  0.15668000  0.31361000  0.01624000  1
  C  C1291  1  0.17847000  0.29158000  0.01637000  1
  C  C1292  1  0.08549000  0.87698000  0.50247000  1
  C  C1293  1  0.10745000  0.85512000  0.50246000  1
  C  C1294  1  0.15668000  0.81361000  0.51624000  1
  C  C1295  1  0.17847000  0.79158000  0.51637000  1
  C  C1296  1  0.66451000  0.87698000  0.24753000  1
  C  C1297  1  0.64255000  0.85512000  0.24754000  1
  C  C1298  1  0.59332000  0.81361000  0.23376000  1
  C  C1299  1  0.57153000  0.79158000  0.23363000  1
  C  C1300  1  0.66451000  0.37698000  0.74753000  1
  C  C1301  1  0.64255000  0.35512000  0.74754000  1
  C  C1302  1  0.59332000  0.31361000  0.73376000  1
  C  C1303  1  0.57153000  0.29158000  0.73363000  1
  C  C1304  1  0.16451000  0.87698000  0.74753000  1
  C  C1305  1  0.14255000  0.85512000  0.74754000  1
  C  C1306  1  0.09332000  0.81361000  0.73376000  1
  C  C1307  1  0.07153000  0.79158000  0.73363000  1
  C  C1308  1  0.16451000  0.37698000  0.24753000  1
  C  C1309  1  0.14255000  0.35512000  0.24754000  1
  C  C1310  1  0.09332000  0.31361000  0.23376000  1
  C  C1311  1  0.07153000  0.29158000  0.23363000  1
  C  C1312  1  0.08549000  0.37302000  0.74753000  1
  C  C1313  1  0.10745000  0.39488000  0.74754000  1
  C  C1314  1  0.15668000  0.43639000  0.73376000  1
  C  C1315  1  0.17847000  0.45842000  0.73363000  1
  C  C1316  1  0.08549000  0.87302000  0.24753000  1
  C  C1317  1  0.10745000  0.89488000  0.24754000  1
  C  C1318  1  0.15668000  0.93639000  0.23376000  1
  C  C1319  1  0.17847000  0.95842000  0.23363000  1
  C  C1320  1  0.58549000  0.37302000  0.24753000  1
  C  C1321  1  0.60745000  0.39488000  0.24754000  1
  C  C1322  1  0.65668000  0.43639000  0.23376000  1
  C  C1323  1  0.67847000  0.45842000  0.23363000  1
  C  C1324  1  0.58549000  0.87302000  0.74753000  1
  C  C1325  1  0.60745000  0.89488000  0.74754000  1
  C  C1326  1  0.65668000  0.93639000  0.73376000  1
  C  C1327  1  0.67847000  0.95842000  0.73363000  1
  C  C1328  1  0.16451000  0.87302000  0.00247000  1
  C  C1329  1  0.14255000  0.89488000  0.00246000  1
  C  C1330  1  0.09332000  0.93639000  0.01624000  1
  C  C1331  1  0.07153000  0.95842000  0.01637000  1
  C  C1332  1  0.16451000  0.37302000  0.50247000  1
  C  C1333  1  0.14255000  0.39488000  0.50246000  1
  C  C1334  1  0.09332000  0.43639000  0.51624000  1
  C  C1335  1  0.07153000  0.45842000  0.51637000  1
  C  C1336  1  0.66451000  0.87302000  0.50247000  1
  C  C1337  1  0.64255000  0.89488000  0.50246000  1
  C  C1338  1  0.59332000  0.93639000  0.51624000  1
  C  C1339  1  0.57153000  0.95842000  0.51637000  1
  C  C1340  1  0.66451000  0.37302000  0.00247000  1
  C  C1341  1  0.64255000  0.39488000  0.00246000  1
  C  C1342  1  0.59332000  0.43639000  0.01624000  1
  C  C1343  1  0.57153000  0.45842000  0.01637000  1
  C  C1344  1  0.33549000  0.75247000  0.12302000  1
  C  C1345  1  0.35745000  0.75246000  0.14488000  1
  C  C1346  1  0.40668000  0.76624000  0.18639000  1
  C  C1347  1  0.42847000  0.76637000  0.20842000  1
  C  C1348  1  0.33549000  0.25247000  0.62302000  1
  C  C1349  1  0.35745000  0.25246000  0.64488000  1
  C  C1350  1  0.40668000  0.26624000  0.68639000  1
  C  C1351  1  0.42847000  0.26637000  0.70842000  1
  C  C1352  1  0.83549000  0.75247000  0.62302000  1
  C  C1353  1  0.85745000  0.75246000  0.64488000  1
  C  C1354  1  0.90668000  0.76624000  0.68639000  1
  C  C1355  1  0.92847000  0.76637000  0.70842000  1
  C  C1356  1  0.83549000  0.25247000  0.12302000  1
  C  C1357  1  0.85745000  0.25246000  0.14488000  1
  C  C1358  1  0.90668000  0.26624000  0.18639000  1
  C  C1359  1  0.92847000  0.26637000  0.20842000  1
  C  C1360  1  0.41451000  0.49753000  0.62302000  1
  C  C1361  1  0.39255000  0.49754000  0.64488000  1
  C  C1362  1  0.34332000  0.48376000  0.68639000  1
  C  C1363  1  0.32153000  0.48363000  0.70842000  1
  C  C1364  1  0.41451000  0.99753000  0.12302000  1
  C  C1365  1  0.39255000  0.99754000  0.14488000  1
  C  C1366  1  0.34332000  0.98376000  0.18639000  1
  C  C1367  1  0.32153000  0.98363000  0.20842000  1
  C  C1368  1  0.91451000  0.49753000  0.12302000  1
  C  C1369  1  0.89255000  0.49754000  0.14488000  1
  C  C1370  1  0.84332000  0.48376000  0.18639000  1
  C  C1371  1  0.82153000  0.48363000  0.20842000  1
  C  C1372  1  0.91451000  0.99753000  0.62302000  1
  C  C1373  1  0.89255000  0.99754000  0.64488000  1
  C  C1374  1  0.84332000  0.98376000  0.68639000  1
  C  C1375  1  0.82153000  0.98363000  0.70842000  1
  C  C1376  1  0.83549000  0.99753000  0.12698000  1
  C  C1377  1  0.85745000  0.99754000  0.10512000  1
  C  C1378  1  0.90668000  0.98376000  0.06361000  1
  C  C1379  1  0.92847000  0.98363000  0.04158000  1
  C  C1380  1  0.83549000  0.49753000  0.62698000  1
  C  C1381  1  0.85745000  0.49754000  0.60512000  1
  C  C1382  1  0.90668000  0.48376000  0.56361000  1
  C  C1383  1  0.92847000  0.48363000  0.54158000  1
  C  C1384  1  0.33549000  0.99753000  0.62698000  1
  C  C1385  1  0.35745000  0.99754000  0.60512000  1
  C  C1386  1  0.40668000  0.98376000  0.56361000  1
  C  C1387  1  0.42847000  0.98363000  0.54158000  1
  C  C1388  1  0.33549000  0.49753000  0.12698000  1
  C  C1389  1  0.35745000  0.49754000  0.10512000  1
  C  C1390  1  0.40668000  0.48376000  0.06361000  1
  C  C1391  1  0.42847000  0.48363000  0.04158000  1
  C  C1392  1  0.91451000  0.25247000  0.62698000  1
  C  C1393  1  0.89255000  0.25246000  0.60512000  1
  C  C1394  1  0.84332000  0.26624000  0.56361000  1
  C  C1395  1  0.82153000  0.26637000  0.54158000  1
  C  C1396  1  0.91451000  0.75247000  0.12698000  1
  C  C1397  1  0.89255000  0.75246000  0.10512000  1
  C  C1398  1  0.84332000  0.76624000  0.06361000  1
  C  C1399  1  0.82153000  0.76637000  0.04158000  1
  C  C1400  1  0.41451000  0.25247000  0.12698000  1
  C  C1401  1  0.39255000  0.25246000  0.10512000  1
  C  C1402  1  0.34332000  0.26624000  0.06361000  1
  C  C1403  1  0.32153000  0.26637000  0.04158000  1
  C  C1404  1  0.41451000  0.75247000  0.62698000  1
  C  C1405  1  0.39255000  0.75246000  0.60512000  1
  C  C1406  1  0.34332000  0.76624000  0.56361000  1
  C  C1407  1  0.32153000  0.76637000  0.54158000  1
  C  C1408  1  0.25247000  0.62698000  0.91451000  1
  C  C1409  1  0.25246000  0.60512000  0.89255000  1
  C  C1410  1  0.26624000  0.56361000  0.84332000  1
  C  C1411  1  0.26637000  0.54158000  0.82153000  1
  C  C1412  1  0.25247000  0.12698000  0.41451000  1
  C  C1413  1  0.25246000  0.10512000  0.39255000  1
  C  C1414  1  0.26624000  0.06361000  0.34332000  1
  C  C1415  1  0.26637000  0.04158000  0.32153000  1
  C  C1416  1  0.75247000  0.62698000  0.41451000  1
  C  C1417  1  0.75246000  0.60512000  0.39255000  1
  C  C1418  1  0.76624000  0.56361000  0.34332000  1
  C  C1419  1  0.76637000  0.54158000  0.32153000  1
  C  C1420  1  0.75247000  0.12698000  0.91451000  1
  C  C1421  1  0.75246000  0.10512000  0.89255000  1
  C  C1422  1  0.76624000  0.06361000  0.84332000  1
  C  C1423  1  0.76637000  0.04158000  0.82153000  1
  C  C1424  1  0.99753000  0.12698000  0.83549000  1
  C  C1425  1  0.99754000  0.10512000  0.85745000  1
  C  C1426  1  0.98376000  0.06361000  0.90668000  1
  C  C1427  1  0.98363000  0.04158000  0.92847000  1
  C  C1428  1  0.99753000  0.62698000  0.33549000  1
  C  C1429  1  0.99754000  0.60512000  0.35745000  1
  C  C1430  1  0.98376000  0.56361000  0.40668000  1
  C  C1431  1  0.98363000  0.54158000  0.42847000  1
  C  C1432  1  0.49753000  0.12698000  0.33549000  1
  C  C1433  1  0.49754000  0.10512000  0.35745000  1
  C  C1434  1  0.48376000  0.06361000  0.40668000  1
  C  C1435  1  0.48363000  0.04158000  0.42847000  1
  C  C1436  1  0.49753000  0.62698000  0.83549000  1
  C  C1437  1  0.49754000  0.60512000  0.85745000  1
  C  C1438  1  0.48376000  0.56361000  0.90668000  1
  C  C1439  1  0.48363000  0.54158000  0.92847000  1
  C  C1440  1  0.49753000  0.62302000  0.41451000  1
  C  C1441  1  0.49754000  0.64488000  0.39255000  1
  C  C1442  1  0.48376000  0.68639000  0.34332000  1
  C  C1443  1  0.48363000  0.70842000  0.32153000  1
  C  C1444  1  0.49753000  0.12302000  0.91451000  1
  C  C1445  1  0.49754000  0.14488000  0.89255000  1
  C  C1446  1  0.48376000  0.18639000  0.84332000  1
  C  C1447  1  0.48363000  0.20842000  0.82153000  1
  C  C1448  1  0.99753000  0.62302000  0.91451000  1
  C  C1449  1  0.99754000  0.64488000  0.89255000  1
  C  C1450  1  0.98376000  0.68639000  0.84332000  1
  C  C1451  1  0.98363000  0.70842000  0.82153000  1
  C  C1452  1  0.99753000  0.12302000  0.41451000  1
  C  C1453  1  0.99754000  0.14488000  0.39255000  1
  C  C1454  1  0.98376000  0.18639000  0.34332000  1
  C  C1455  1  0.98363000  0.20842000  0.32153000  1
  C  C1456  1  0.75247000  0.12302000  0.33549000  1
  C  C1457  1  0.75246000  0.14488000  0.35745000  1
  C  C1458  1  0.76624000  0.18639000  0.40668000  1
  C  C1459  1  0.76637000  0.20842000  0.42847000  1
  C  C1460  1  0.75247000  0.62302000  0.83549000  1
  C  C1461  1  0.75246000  0.64488000  0.85745000  1
  C  C1462  1  0.76624000  0.68639000  0.90668000  1
  C  C1463  1  0.76637000  0.70842000  0.92847000  1
  C  C1464  1  0.25247000  0.12302000  0.83549000  1
  C  C1465  1  0.25246000  0.14488000  0.85745000  1
  C  C1466  1  0.26624000  0.18639000  0.90668000  1
  C  C1467  1  0.26637000  0.20842000  0.92847000  1
  C  C1468  1  0.25247000  0.62302000  0.33549000  1
  C  C1469  1  0.25246000  0.64488000  0.35745000  1
  C  C1470  1  0.26624000  0.68639000  0.40668000  1
  C  C1471  1  0.26637000  0.70842000  0.42847000  1
  C  C1472  1  0.12698000  0.83549000  0.99753000  1
  C  C1473  1  0.10512000  0.85745000  0.99754000  1
  C  C1474  1  0.06361000  0.90668000  0.98376000  1
  C  C1475  1  0.04158000  0.92847000  0.98363000  1
  C  C1476  1  0.12698000  0.33549000  0.49753000  1
  C  C1477  1  0.10512000  0.35745000  0.49754000  1
  C  C1478  1  0.06361000  0.40668000  0.48376000  1
  C  C1479  1  0.04158000  0.42847000  0.48363000  1
  C  C1480  1  0.62698000  0.83549000  0.49753000  1
  C  C1481  1  0.60512000  0.85745000  0.49754000  1
  C  C1482  1  0.56361000  0.90668000  0.48376000  1
  C  C1483  1  0.54158000  0.92847000  0.48363000  1
  C  C1484  1  0.62698000  0.33549000  0.99753000  1
  C  C1485  1  0.60512000  0.35745000  0.99754000  1
  C  C1486  1  0.56361000  0.40668000  0.98376000  1
  C  C1487  1  0.54158000  0.42847000  0.98363000  1
  C  C1488  1  0.62698000  0.91451000  0.25247000  1
  C  C1489  1  0.60512000  0.89255000  0.25246000  1
  C  C1490  1  0.56361000  0.84332000  0.26624000  1
  C  C1491  1  0.54158000  0.82153000  0.26637000  1
  C  C1492  1  0.62698000  0.41451000  0.75247000  1
  C  C1493  1  0.60512000  0.39255000  0.75246000  1
  C  C1494  1  0.56361000  0.34332000  0.76624000  1
  C  C1495  1  0.54158000  0.32153000  0.76637000  1
  C  C1496  1  0.12698000  0.91451000  0.75247000  1
  C  C1497  1  0.10512000  0.89255000  0.75246000  1
  C  C1498  1  0.06361000  0.84332000  0.76624000  1
  C  C1499  1  0.04158000  0.82153000  0.76637000  1
  C  C1500  1  0.12698000  0.41451000  0.25247000  1
  C  C1501  1  0.10512000  0.39255000  0.25246000  1
  C  C1502  1  0.06361000  0.34332000  0.26624000  1
  C  C1503  1  0.04158000  0.32153000  0.26637000  1
  C  C1504  1  0.12302000  0.33549000  0.75247000  1
  C  C1505  1  0.14488000  0.35745000  0.75246000  1
  C  C1506  1  0.18639000  0.40668000  0.76624000  1
  C  C1507  1  0.20842000  0.42847000  0.76637000  1
  C  C1508  1  0.12302000  0.83549000  0.25247000  1
  C  C1509  1  0.14488000  0.85745000  0.25246000  1
  C  C1510  1  0.18639000  0.90668000  0.26624000  1
  C  C1511  1  0.20842000  0.92847000  0.26637000  1
  C  C1512  1  0.62302000  0.33549000  0.25247000  1
  C  C1513  1  0.64488000  0.35745000  0.25246000  1
  C  C1514  1  0.68639000  0.40668000  0.26624000  1
  C  C1515  1  0.70842000  0.42847000  0.26637000  1
  C  C1516  1  0.62302000  0.83549000  0.75247000  1
  C  C1517  1  0.64488000  0.85745000  0.75246000  1
  C  C1518  1  0.68639000  0.90668000  0.76624000  1
  C  C1519  1  0.70842000  0.92847000  0.76637000  1
  C  C1520  1  0.62302000  0.41451000  0.49753000  1
  C  C1521  1  0.64488000  0.39255000  0.49754000  1
  C  C1522  1  0.68639000  0.34332000  0.48376000  1
  C  C1523  1  0.70842000  0.32153000  0.48363000  1
  C  C1524  1  0.62302000  0.91451000  0.99753000  1
  C  C1525  1  0.64488000  0.89255000  0.99754000  1
  C  C1526  1  0.68639000  0.84332000  0.98376000  1
  C  C1527  1  0.70842000  0.82153000  0.98363000  1
  C  C1528  1  0.12302000  0.41451000  0.99753000  1
  C  C1529  1  0.14488000  0.39255000  0.99754000  1
  C  C1530  1  0.18639000  0.34332000  0.98376000  1
  C  C1531  1  0.20842000  0.32153000  0.98363000  1
  C  C1532  1  0.12302000  0.91451000  0.49753000  1
  C  C1533  1  0.14488000  0.89255000  0.49754000  1
  C  C1534  1  0.18639000  0.84332000  0.48376000  1
  C  C1535  1  0.20842000  0.82153000  0.48363000  1
  C  C1536  1  0.49753000  0.41451000  0.62302000  1
  C  C1537  1  0.49754000  0.39255000  0.64488000  1
  C  C1538  1  0.48376000  0.34332000  0.68639000  1
  C  C1539  1  0.48363000  0.32153000  0.70842000  1
  C  C1540  1  0.49753000  0.91451000  0.12302000  1
  C  C1541  1  0.49754000  0.89255000  0.14488000  1
  C  C1542  1  0.48376000  0.84332000  0.18639000  1
  C  C1543  1  0.48363000  0.82153000  0.20842000  1
  C  C1544  1  0.99753000  0.41451000  0.12302000  1
  C  C1545  1  0.99754000  0.39255000  0.14488000  1
  C  C1546  1  0.98376000  0.34332000  0.18639000  1
  C  C1547  1  0.98363000  0.32153000  0.20842000  1
  C  C1548  1  0.99753000  0.91451000  0.62302000  1
  C  C1549  1  0.99754000  0.89255000  0.64488000  1
  C  C1550  1  0.98376000  0.84332000  0.68639000  1
  C  C1551  1  0.98363000  0.82153000  0.70842000  1
  C  C1552  1  0.75247000  0.33549000  0.12302000  1
  C  C1553  1  0.75246000  0.35745000  0.14488000  1
  C  C1554  1  0.76624000  0.40668000  0.18639000  1
  C  C1555  1  0.76637000  0.42847000  0.20842000  1
  C  C1556  1  0.75247000  0.83549000  0.62302000  1
  C  C1557  1  0.75246000  0.85745000  0.64488000  1
  C  C1558  1  0.76624000  0.90668000  0.68639000  1
  C  C1559  1  0.76637000  0.92847000  0.70842000  1
  C  C1560  1  0.25247000  0.33549000  0.62302000  1
  C  C1561  1  0.25246000  0.35745000  0.64488000  1
  C  C1562  1  0.26624000  0.40668000  0.68639000  1
  C  C1563  1  0.26637000  0.42847000  0.70842000  1
  C  C1564  1  0.25247000  0.83549000  0.12302000  1
  C  C1565  1  0.25246000  0.85745000  0.14488000  1
  C  C1566  1  0.26624000  0.90668000  0.18639000  1
  C  C1567  1  0.26637000  0.92847000  0.20842000  1
  C  C1568  1  0.25247000  0.91451000  0.62698000  1
  C  C1569  1  0.25246000  0.89255000  0.60512000  1
  C  C1570  1  0.26624000  0.84332000  0.56361000  1
  C  C1571  1  0.26637000  0.82153000  0.54158000  1
  C  C1572  1  0.25247000  0.41451000  0.12698000  1
  C  C1573  1  0.25246000  0.39255000  0.10512000  1
  C  C1574  1  0.26624000  0.34332000  0.06361000  1
  C  C1575  1  0.26637000  0.32153000  0.04158000  1
  C  C1576  1  0.75247000  0.91451000  0.12698000  1
  C  C1577  1  0.75246000  0.89255000  0.10512000  1
  C  C1578  1  0.76624000  0.84332000  0.06361000  1
  C  C1579  1  0.76637000  0.82153000  0.04158000  1
  C  C1580  1  0.75247000  0.41451000  0.62698000  1
  C  C1581  1  0.75246000  0.39255000  0.60512000  1
  C  C1582  1  0.76624000  0.34332000  0.56361000  1
  C  C1583  1  0.76637000  0.32153000  0.54158000  1
  C  C1584  1  0.99753000  0.83549000  0.12698000  1
  C  C1585  1  0.99754000  0.85745000  0.10512000  1
  C  C1586  1  0.98376000  0.90668000  0.06361000  1
  C  C1587  1  0.98363000  0.92847000  0.04158000  1
  C  C1588  1  0.99753000  0.33549000  0.62698000  1
  C  C1589  1  0.99754000  0.35745000  0.60512000  1
  C  C1590  1  0.98376000  0.40668000  0.56361000  1
  C  C1591  1  0.98363000  0.42847000  0.54158000  1
  C  C1592  1  0.49753000  0.83549000  0.62698000  1
  C  C1593  1  0.49754000  0.85745000  0.60512000  1
  C  C1594  1  0.48376000  0.90668000  0.56361000  1
  C  C1595  1  0.48363000  0.92847000  0.54158000  1
  C  C1596  1  0.49753000  0.33549000  0.12698000  1
  C  C1597  1  0.49754000  0.35745000  0.10512000  1
  C  C1598  1  0.48376000  0.40668000  0.06361000  1
  C  C1599  1  0.48363000  0.42847000  0.04158000  1
  C  C1600  1  0.62302000  0.49753000  0.41451000  1
  C  C1601  1  0.64488000  0.49754000  0.39255000  1
  C  C1602  1  0.68639000  0.48376000  0.34332000  1
  C  C1603  1  0.70842000  0.48363000  0.32153000  1
  C  C1604  1  0.62302000  0.99753000  0.91451000  1
  C  C1605  1  0.64488000  0.99754000  0.89255000  1
  C  C1606  1  0.68639000  0.98376000  0.84332000  1
  C  C1607  1  0.70842000  0.98363000  0.82153000  1
  C  C1608  1  0.12302000  0.49753000  0.91451000  1
  C  C1609  1  0.14488000  0.49754000  0.89255000  1
  C  C1610  1  0.18639000  0.48376000  0.84332000  1
  C  C1611  1  0.20842000  0.48363000  0.82153000  1
  C  C1612  1  0.12302000  0.99753000  0.41451000  1
  C  C1613  1  0.14488000  0.99754000  0.39255000  1
  C  C1614  1  0.18639000  0.98376000  0.34332000  1
  C  C1615  1  0.20842000  0.98363000  0.32153000  1
  C  C1616  1  0.12302000  0.75247000  0.33549000  1
  C  C1617  1  0.14488000  0.75246000  0.35745000  1
  C  C1618  1  0.18639000  0.76624000  0.40668000  1
  C  C1619  1  0.20842000  0.76637000  0.42847000  1
  C  C1620  1  0.12302000  0.25247000  0.83549000  1
  C  C1621  1  0.14488000  0.25246000  0.85745000  1
  C  C1622  1  0.18639000  0.26624000  0.90668000  1
  C  C1623  1  0.20842000  0.26637000  0.92847000  1
  C  C1624  1  0.62302000  0.75247000  0.83549000  1
  C  C1625  1  0.64488000  0.75246000  0.85745000  1
  C  C1626  1  0.68639000  0.76624000  0.90668000  1
  C  C1627  1  0.70842000  0.76637000  0.92847000  1
  C  C1628  1  0.62302000  0.25247000  0.33549000  1
  C  C1629  1  0.64488000  0.25246000  0.35745000  1
  C  C1630  1  0.68639000  0.26624000  0.40668000  1
  C  C1631  1  0.70842000  0.26637000  0.42847000  1
  C  C1632  1  0.62698000  0.25247000  0.91451000  1
  C  C1633  1  0.60512000  0.25246000  0.89255000  1
  C  C1634  1  0.56361000  0.26624000  0.84332000  1
  C  C1635  1  0.54158000  0.26637000  0.82153000  1
  C  C1636  1  0.62698000  0.75247000  0.41451000  1
  C  C1637  1  0.60512000  0.75246000  0.39255000  1
  C  C1638  1  0.56361000  0.76624000  0.34332000  1
  C  C1639  1  0.54158000  0.76637000  0.32153000  1
  C  C1640  1  0.12698000  0.25247000  0.41451000  1
  C  C1641  1  0.10512000  0.25246000  0.39255000  1
  C  C1642  1  0.06361000  0.26624000  0.34332000  1
  C  C1643  1  0.04158000  0.26637000  0.32153000  1
  C  C1644  1  0.12698000  0.75247000  0.91451000  1
  C  C1645  1  0.10512000  0.75246000  0.89255000  1
  C  C1646  1  0.06361000  0.76624000  0.84332000  1
  C  C1647  1  0.04158000  0.76637000  0.82153000  1
  C  C1648  1  0.12698000  0.99753000  0.83549000  1
  C  C1649  1  0.10512000  0.99754000  0.85745000  1
  C  C1650  1  0.06361000  0.98376000  0.90668000  1
  C  C1651  1  0.04158000  0.98363000  0.92847000  1
  C  C1652  1  0.12698000  0.49753000  0.33549000  1
  C  C1653  1  0.10512000  0.49754000  0.35745000  1
  C  C1654  1  0.06361000  0.48376000  0.40668000  1
  C  C1655  1  0.04158000  0.48363000  0.42847000  1
  C  C1656  1  0.62698000  0.99753000  0.33549000  1
  C  C1657  1  0.60512000  0.99754000  0.35745000  1
  C  C1658  1  0.56361000  0.98376000  0.40668000  1
  C  C1659  1  0.54158000  0.98363000  0.42847000  1
  C  C1660  1  0.62698000  0.49753000  0.83549000  1
  C  C1661  1  0.60512000  0.49754000  0.85745000  1
  C  C1662  1  0.56361000  0.48376000  0.90668000  1
  C  C1663  1  0.54158000  0.48363000  0.92847000  1
  C  C1664  1  0.41451000  0.62302000  0.49753000  1
  C  C1665  1  0.39255000  0.64488000  0.49754000  1
  C  C1666  1  0.34332000  0.68639000  0.48376000  1
  C  C1667  1  0.32153000  0.70842000  0.48363000  1
  C  C1668  1  0.41451000  0.12302000  0.99753000  1
  C  C1669  1  0.39255000  0.14488000  0.99754000  1
  C  C1670  1  0.34332000  0.18639000  0.98376000  1
  C  C1671  1  0.32153000  0.20842000  0.98363000  1
  C  C1672  1  0.91451000  0.62302000  0.99753000  1
  C  C1673  1  0.89255000  0.64488000  0.99754000  1
  C  C1674  1  0.84332000  0.68639000  0.98376000  1
  C  C1675  1  0.82153000  0.70842000  0.98363000  1
  C  C1676  1  0.91451000  0.12302000  0.49753000  1
  C  C1677  1  0.89255000  0.14488000  0.49754000  1
  C  C1678  1  0.84332000  0.18639000  0.48376000  1
  C  C1679  1  0.82153000  0.20842000  0.48363000  1
  C  C1680  1  0.33549000  0.12302000  0.75247000  1
  C  C1681  1  0.35745000  0.14488000  0.75246000  1
  C  C1682  1  0.40668000  0.18639000  0.76624000  1
  C  C1683  1  0.42847000  0.20842000  0.76637000  1
  C  C1684  1  0.33549000  0.62302000  0.25247000  1
  C  C1685  1  0.35745000  0.64488000  0.25246000  1
  C  C1686  1  0.40668000  0.68639000  0.26624000  1
  C  C1687  1  0.42847000  0.70842000  0.26637000  1
  C  C1688  1  0.83549000  0.12302000  0.25247000  1
  C  C1689  1  0.85745000  0.14488000  0.25246000  1
  C  C1690  1  0.90668000  0.18639000  0.26624000  1
  C  C1691  1  0.92847000  0.20842000  0.26637000  1
  C  C1692  1  0.83549000  0.62302000  0.75247000  1
  C  C1693  1  0.85745000  0.64488000  0.75246000  1
  C  C1694  1  0.90668000  0.68639000  0.76624000  1
  C  C1695  1  0.92847000  0.70842000  0.76637000  1
  C  C1696  1  0.91451000  0.62698000  0.25247000  1
  C  C1697  1  0.89255000  0.60512000  0.25246000  1
  C  C1698  1  0.84332000  0.56361000  0.26624000  1
  C  C1699  1  0.82153000  0.54158000  0.26637000  1
  C  C1700  1  0.91451000  0.12698000  0.75247000  1
  C  C1701  1  0.89255000  0.10512000  0.75246000  1
  C  C1702  1  0.84332000  0.06361000  0.76624000  1
  C  C1703  1  0.82153000  0.04158000  0.76637000  1
  C  C1704  1  0.41451000  0.62698000  0.75247000  1
  C  C1705  1  0.39255000  0.60512000  0.75246000  1
  C  C1706  1  0.34332000  0.56361000  0.76624000  1
  C  C1707  1  0.32153000  0.54158000  0.76637000  1
  C  C1708  1  0.41451000  0.12698000  0.25247000  1
  C  C1709  1  0.39255000  0.10512000  0.25246000  1
  C  C1710  1  0.34332000  0.06361000  0.26624000  1
  C  C1711  1  0.32153000  0.04158000  0.26637000  1
  C  C1712  1  0.83549000  0.12698000  0.99753000  1
  C  C1713  1  0.85745000  0.10512000  0.99754000  1
  C  C1714  1  0.90668000  0.06361000  0.98376000  1
  C  C1715  1  0.92847000  0.04158000  0.98363000  1
  C  C1716  1  0.83549000  0.62698000  0.49753000  1
  C  C1717  1  0.85745000  0.60512000  0.49754000  1
  C  C1718  1  0.90668000  0.56361000  0.48376000  1
  C  C1719  1  0.92847000  0.54158000  0.48363000  1
  C  C1720  1  0.33549000  0.12698000  0.49753000  1
  C  C1721  1  0.35745000  0.10512000  0.49754000  1
  C  C1722  1  0.40668000  0.06361000  0.48376000  1
  C  C1723  1  0.42847000  0.04158000  0.48363000  1
  C  C1724  1  0.33549000  0.62698000  0.99753000  1
  C  C1725  1  0.35745000  0.60512000  0.99754000  1
  C  C1726  1  0.40668000  0.56361000  0.98376000  1
  C  C1727  1  0.42847000  0.54158000  0.98363000  1
  C  C1728  1  0.66451000  0.24753000  0.87698000  1
  C  C1729  1  0.64255000  0.24754000  0.85512000  1
  C  C1730  1  0.59332000  0.23376000  0.81361000  1
  C  C1731  1  0.57153000  0.23363000  0.79158000  1
  C  C1732  1  0.66451000  0.74753000  0.37698000  1
  C  C1733  1  0.64255000  0.74754000  0.35512000  1
  C  C1734  1  0.59332000  0.73376000  0.31361000  1
  C  C1735  1  0.57153000  0.73363000  0.29158000  1
  C  C1736  1  0.16451000  0.24753000  0.37698000  1
  C  C1737  1  0.14255000  0.24754000  0.35512000  1
  C  C1738  1  0.09332000  0.23376000  0.31361000  1
  C  C1739  1  0.07153000  0.23363000  0.29158000  1
  C  C1740  1  0.16451000  0.74753000  0.87698000  1
  C  C1741  1  0.14255000  0.74754000  0.85512000  1
  C  C1742  1  0.09332000  0.73376000  0.81361000  1
  C  C1743  1  0.07153000  0.73363000  0.79158000  1
  C  C1744  1  0.58549000  0.50247000  0.37698000  1
  C  C1745  1  0.60745000  0.50246000  0.35512000  1
  C  C1746  1  0.65668000  0.51624000  0.31361000  1
  C  C1747  1  0.67847000  0.51637000  0.29158000  1
  C  C1748  1  0.58549000  0.00247000  0.87698000  1
  C  C1749  1  0.60745000  0.00246000  0.85512000  1
  C  C1750  1  0.65668000  0.01624000  0.81361000  1
  C  C1751  1  0.67847000  0.01637000  0.79158000  1
  C  C1752  1  0.08549000  0.50247000  0.87698000  1
  C  C1753  1  0.10745000  0.50246000  0.85512000  1
  C  C1754  1  0.15668000  0.51624000  0.81361000  1
  C  C1755  1  0.17847000  0.51637000  0.79158000  1
  C  C1756  1  0.08549000  0.00247000  0.37698000  1
  C  C1757  1  0.10745000  0.00246000  0.35512000  1
  C  C1758  1  0.15668000  0.01624000  0.31361000  1
  C  C1759  1  0.17847000  0.01637000  0.29158000  1
  C  C1760  1  0.16451000  0.00247000  0.87302000  1
  C  C1761  1  0.14255000  0.00246000  0.89488000  1
  C  C1762  1  0.09332000  0.01624000  0.93639000  1
  C  C1763  1  0.07153000  0.01637000  0.95842000  1
  C  C1764  1  0.16451000  0.50247000  0.37302000  1
  C  C1765  1  0.14255000  0.50246000  0.39488000  1
  C  C1766  1  0.09332000  0.51624000  0.43639000  1
  C  C1767  1  0.07153000  0.51637000  0.45842000  1
  C  C1768  1  0.66451000  0.00247000  0.37302000  1
  C  C1769  1  0.64255000  0.00246000  0.39488000  1
  C  C1770  1  0.59332000  0.01624000  0.43639000  1
  C  C1771  1  0.57153000  0.01637000  0.45842000  1
  C  C1772  1  0.66451000  0.50247000  0.87302000  1
  C  C1773  1  0.64255000  0.50246000  0.89488000  1
  C  C1774  1  0.59332000  0.51624000  0.93639000  1
  C  C1775  1  0.57153000  0.51637000  0.95842000  1
  C  C1776  1  0.08549000  0.74753000  0.37302000  1
  C  C1777  1  0.10745000  0.74754000  0.39488000  1
  C  C1778  1  0.15668000  0.73376000  0.43639000  1
  C  C1779  1  0.17847000  0.73363000  0.45842000  1
  C  C1780  1  0.08549000  0.24753000  0.87302000  1
  C  C1781  1  0.10745000  0.24754000  0.89488000  1
  C  C1782  1  0.15668000  0.23376000  0.93639000  1
  C  C1783  1  0.17847000  0.23363000  0.95842000  1
  C  C1784  1  0.58549000  0.74753000  0.87302000  1
  C  C1785  1  0.60745000  0.74754000  0.89488000  1
  C  C1786  1  0.65668000  0.73376000  0.93639000  1
  C  C1787  1  0.67847000  0.73363000  0.95842000  1
  C  C1788  1  0.58549000  0.24753000  0.37302000  1
  C  C1789  1  0.60745000  0.24754000  0.39488000  1
  C  C1790  1  0.65668000  0.23376000  0.43639000  1
  C  C1791  1  0.67847000  0.23363000  0.45842000  1
  C  C1792  1  0.74753000  0.37302000  0.08549000  1
  C  C1793  1  0.74754000  0.39488000  0.10745000  1
  C  C1794  1  0.73376000  0.43639000  0.15668000  1
  C  C1795  1  0.73363000  0.45842000  0.17847000  1
  C  C1796  1  0.74753000  0.87302000  0.58549000  1
  C  C1797  1  0.74754000  0.89488000  0.60745000  1
  C  C1798  1  0.73376000  0.93639000  0.65668000  1
  C  C1799  1  0.73363000  0.95842000  0.67847000  1
  C  C1800  1  0.24753000  0.37302000  0.58549000  1
  C  C1801  1  0.24754000  0.39488000  0.60745000  1
  C  C1802  1  0.23376000  0.43639000  0.65668000  1
  C  C1803  1  0.23363000  0.45842000  0.67847000  1
  C  C1804  1  0.24753000  0.87302000  0.08549000  1
  C  C1805  1  0.24754000  0.89488000  0.10745000  1
  C  C1806  1  0.23376000  0.93639000  0.15668000  1
  C  C1807  1  0.23363000  0.95842000  0.17847000  1
  C  C1808  1  0.00247000  0.87302000  0.16451000  1
  C  C1809  1  0.00246000  0.89488000  0.14255000  1
  C  C1810  1  0.01624000  0.93639000  0.09332000  1
  C  C1811  1  0.01637000  0.95842000  0.07153000  1
  C  C1812  1  0.00247000  0.37302000  0.66451000  1
  C  C1813  1  0.00246000  0.39488000  0.64255000  1
  C  C1814  1  0.01624000  0.43639000  0.59332000  1
  C  C1815  1  0.01637000  0.45842000  0.57153000  1
  C  C1816  1  0.50247000  0.87302000  0.66451000  1
  C  C1817  1  0.50246000  0.89488000  0.64255000  1
  C  C1818  1  0.51624000  0.93639000  0.59332000  1
  C  C1819  1  0.51637000  0.95842000  0.57153000  1
  C  C1820  1  0.50247000  0.37302000  0.16451000  1
  C  C1821  1  0.50246000  0.39488000  0.14255000  1
  C  C1822  1  0.51624000  0.43639000  0.09332000  1
  C  C1823  1  0.51637000  0.45842000  0.07153000  1
  C  C1824  1  0.50247000  0.37698000  0.58549000  1
  C  C1825  1  0.50246000  0.35512000  0.60745000  1
  C  C1826  1  0.51624000  0.31361000  0.65668000  1
  C  C1827  1  0.51637000  0.29158000  0.67847000  1
  C  C1828  1  0.50247000  0.87698000  0.08549000  1
  C  C1829  1  0.50246000  0.85512000  0.10745000  1
  C  C1830  1  0.51624000  0.81361000  0.15668000  1
  C  C1831  1  0.51637000  0.79158000  0.17847000  1
  C  C1832  1  0.00247000  0.37698000  0.08549000  1
  C  C1833  1  0.00246000  0.35512000  0.10745000  1
  C  C1834  1  0.01624000  0.31361000  0.15668000  1
  C  C1835  1  0.01637000  0.29158000  0.17847000  1
  C  C1836  1  0.00247000  0.87698000  0.58549000  1
  C  C1837  1  0.00246000  0.85512000  0.60745000  1
  C  C1838  1  0.01624000  0.81361000  0.65668000  1
  C  C1839  1  0.01637000  0.79158000  0.67847000  1
  C  C1840  1  0.24753000  0.87698000  0.66451000  1
  C  C1841  1  0.24754000  0.85512000  0.64255000  1
  C  C1842  1  0.23376000  0.81361000  0.59332000  1
  C  C1843  1  0.23363000  0.79158000  0.57153000  1
  C  C1844  1  0.24753000  0.37698000  0.16451000  1
  C  C1845  1  0.24754000  0.35512000  0.14255000  1
  C  C1846  1  0.23376000  0.31361000  0.09332000  1
  C  C1847  1  0.23363000  0.29158000  0.07153000  1
  C  C1848  1  0.74753000  0.87698000  0.16451000  1
  C  C1849  1  0.74754000  0.85512000  0.14255000  1
  C  C1850  1  0.73376000  0.81361000  0.09332000  1
  C  C1851  1  0.73363000  0.79158000  0.07153000  1
  C  C1852  1  0.74753000  0.37698000  0.66451000  1
  C  C1853  1  0.74754000  0.35512000  0.64255000  1
  C  C1854  1  0.73376000  0.31361000  0.59332000  1
  C  C1855  1  0.73363000  0.29158000  0.57153000  1
  C  C1856  1  0.87302000  0.16451000  0.00247000  1
  C  C1857  1  0.89488000  0.14255000  0.00246000  1
  C  C1858  1  0.93639000  0.09332000  0.01624000  1
  C  C1859  1  0.95842000  0.07153000  0.01637000  1
  C  C1860  1  0.87302000  0.66451000  0.50247000  1
  C  C1861  1  0.89488000  0.64255000  0.50246000  1
  C  C1862  1  0.93639000  0.59332000  0.51624000  1
  C  C1863  1  0.95842000  0.57153000  0.51637000  1
  C  C1864  1  0.37302000  0.16451000  0.50247000  1
  C  C1865  1  0.39488000  0.14255000  0.50246000  1
  C  C1866  1  0.43639000  0.09332000  0.51624000  1
  C  C1867  1  0.45842000  0.07153000  0.51637000  1
  C  C1868  1  0.37302000  0.66451000  0.00247000  1
  C  C1869  1  0.39488000  0.64255000  0.00246000  1
  C  C1870  1  0.43639000  0.59332000  0.01624000  1
  C  C1871  1  0.45842000  0.57153000  0.01637000  1
  C  C1872  1  0.37302000  0.08549000  0.74753000  1
  C  C1873  1  0.39488000  0.10745000  0.74754000  1
  C  C1874  1  0.43639000  0.15668000  0.73376000  1
  C  C1875  1  0.45842000  0.17847000  0.73363000  1
  C  C1876  1  0.37302000  0.58549000  0.24753000  1
  C  C1877  1  0.39488000  0.60745000  0.24754000  1
  C  C1878  1  0.43639000  0.65668000  0.23376000  1
  C  C1879  1  0.45842000  0.67847000  0.23363000  1
  C  C1880  1  0.87302000  0.08549000  0.24753000  1
  C  C1881  1  0.89488000  0.10745000  0.24754000  1
  C  C1882  1  0.93639000  0.15668000  0.23376000  1
  C  C1883  1  0.95842000  0.17847000  0.23363000  1
  C  C1884  1  0.87302000  0.58549000  0.74753000  1
  C  C1885  1  0.89488000  0.60745000  0.74754000  1
  C  C1886  1  0.93639000  0.65668000  0.73376000  1
  C  C1887  1  0.95842000  0.67847000  0.73363000  1
  C  C1888  1  0.87698000  0.66451000  0.24753000  1
  C  C1889  1  0.85512000  0.64255000  0.24754000  1
  C  C1890  1  0.81361000  0.59332000  0.23376000  1
  C  C1891  1  0.79158000  0.57153000  0.23363000  1
  C  C1892  1  0.87698000  0.16451000  0.74753000  1
  C  C1893  1  0.85512000  0.14255000  0.74754000  1
  C  C1894  1  0.81361000  0.09332000  0.73376000  1
  C  C1895  1  0.79158000  0.07153000  0.73363000  1
  C  C1896  1  0.37698000  0.66451000  0.74753000  1
  C  C1897  1  0.35512000  0.64255000  0.74754000  1
  C  C1898  1  0.31361000  0.59332000  0.73376000  1
  C  C1899  1  0.29158000  0.57153000  0.73363000  1
  C  C1900  1  0.37698000  0.16451000  0.24753000  1
  C  C1901  1  0.35512000  0.14255000  0.24754000  1
  C  C1902  1  0.31361000  0.09332000  0.23376000  1
  C  C1903  1  0.29158000  0.07153000  0.23363000  1
  C  C1904  1  0.37698000  0.58549000  0.50247000  1
  C  C1905  1  0.35512000  0.60745000  0.50246000  1
  C  C1906  1  0.31361000  0.65668000  0.51624000  1
  C  C1907  1  0.29158000  0.67847000  0.51637000  1
  C  C1908  1  0.37698000  0.08549000  0.00247000  1
  C  C1909  1  0.35512000  0.10745000  0.00246000  1
  C  C1910  1  0.31361000  0.15668000  0.01624000  1
  C  C1911  1  0.29158000  0.17847000  0.01637000  1
  C  C1912  1  0.87698000  0.58549000  0.00247000  1
  C  C1913  1  0.85512000  0.60745000  0.00246000  1
  C  C1914  1  0.81361000  0.65668000  0.01624000  1
  C  C1915  1  0.79158000  0.67847000  0.01637000  1
  C  C1916  1  0.87698000  0.08549000  0.50247000  1
  C  C1917  1  0.85512000  0.10745000  0.50246000  1
  C  C1918  1  0.81361000  0.15668000  0.51624000  1
  C  C1919  1  0.79158000  0.17847000  0.51637000  1
  C  C1920  1  0.42880000  0.50170000  0.42880000  1
  C  C1921  1  0.40520000  0.49830000  0.40520000  1
  C  C1922  1  0.42880000  0.00170000  0.92880000  1
  C  C1923  1  0.40520000  0.99830000  0.90520000  1
  C  C1924  1  0.92880000  0.50170000  0.92880000  1
  C  C1925  1  0.90520000  0.49830000  0.90520000  1
  C  C1926  1  0.92880000  0.00170000  0.42880000  1
  C  C1927  1  0.90520000  0.99830000  0.40520000  1
  C  C1928  1  0.32120000  0.74830000  0.92880000  1
  C  C1929  1  0.34480000  0.75170000  0.90520000  1
  C  C1930  1  0.32120000  0.24830000  0.42880000  1
  C  C1931  1  0.34480000  0.25170000  0.40520000  1
  C  C1932  1  0.82120000  0.00170000  0.32120000  1
  C  C1933  1  0.84480000  0.99830000  0.34480000  1
  C  C1934  1  0.82120000  0.50170000  0.82120000  1
  C  C1935  1  0.84480000  0.49830000  0.84480000  1
  C  C1936  1  0.32120000  0.50170000  0.32120000  1
  C  C1937  1  0.34480000  0.49830000  0.34480000  1
  C  C1938  1  0.92880000  0.24830000  0.82120000  1
  C  C1939  1  0.90520000  0.25170000  0.84480000  1
  C  C1940  1  0.42880000  0.24830000  0.32120000  1
  C  C1941  1  0.40520000  0.25170000  0.34480000  1
  C  C1942  1  0.42880000  0.42880000  0.50170000  1
  C  C1943  1  0.40520000  0.40520000  0.49830000  1
  C  C1944  1  0.42880000  0.92880000  0.00170000  1
  C  C1945  1  0.40520000  0.90520000  0.99830000  1
  C  C1946  1  0.92880000  0.42880000  0.00170000  1
  C  C1947  1  0.90520000  0.40520000  0.99830000  1
  C  C1948  1  0.92880000  0.92880000  0.50170000  1
  C  C1949  1  0.90520000  0.90520000  0.49830000  1
  C  C1950  1  0.92880000  0.32120000  0.74830000  1
  C  C1951  1  0.90520000  0.34480000  0.75170000  1
  C  C1952  1  0.42880000  0.32120000  0.24830000  1
  C  C1953  1  0.40520000  0.34480000  0.25170000  1
  C  C1954  1  0.32120000  0.82120000  0.00170000  1
  C  C1955  1  0.34480000  0.84480000  0.99830000  1
  C  C1956  1  0.32120000  0.32120000  0.50170000  1
  C  C1957  1  0.34480000  0.34480000  0.49830000  1
  C  C1958  1  0.82120000  0.92880000  0.24830000  1
  C  C1959  1  0.84480000  0.90520000  0.25170000  1
  C  C1960  1  0.82120000  0.42880000  0.74830000  1
  C  C1961  1  0.84480000  0.40520000  0.75170000  1
  C  C1962  1  0.32120000  0.42880000  0.24830000  1
  C  C1963  1  0.34480000  0.40520000  0.25170000  1
  C  C1964  1  0.50170000  0.42880000  0.42880000  1
  C  C1965  1  0.49830000  0.40520000  0.40520000  1
  C  C1966  1  0.50170000  0.92880000  0.92880000  1
  C  C1967  1  0.49830000  0.90520000  0.90520000  1
  C  C1968  1  0.00170000  0.42880000  0.92880000  1
  C  C1969  1  0.99830000  0.40520000  0.90520000  1
  C  C1970  1  0.00170000  0.92880000  0.42880000  1
  C  C1971  1  0.99830000  0.90520000  0.40520000  1
  C  C1972  1  0.74830000  0.92880000  0.32120000  1
  C  C1973  1  0.75170000  0.90520000  0.34480000  1
  C  C1974  1  0.74830000  0.42880000  0.82120000  1
  C  C1975  1  0.75170000  0.40520000  0.84480000  1
  C  C1976  1  0.24830000  0.42880000  0.32120000  1
  C  C1977  1  0.25170000  0.40520000  0.34480000  1
  C  C1978  1  0.00170000  0.32120000  0.82120000  1
  C  C1979  1  0.99830000  0.34480000  0.84480000  1
  C  C1980  1  0.50170000  0.32120000  0.32120000  1
  C  C1981  1  0.49830000  0.34480000  0.34480000  1
  C  C1982  1  0.24830000  0.82120000  0.92880000  1
  C  C1983  1  0.25170000  0.84480000  0.90520000  1
  C  C1984  1  0.24830000  0.32120000  0.42880000  1
  C  C1985  1  0.25170000  0.34480000  0.40520000  1
  C  C1986  1  0.25170000  0.67880000  0.07120000  1
  C  C1987  1  0.24830000  0.65520000  0.09480000  1
  C  C1988  1  0.25170000  0.17880000  0.57120000  1
  C  C1989  1  0.24830000  0.15520000  0.59480000  1
  C  C1990  1  0.49830000  0.57120000  0.57120000  1
  C  C1991  1  0.50170000  0.59480000  0.59480000  1
  C  C1992  1  0.49830000  0.07120000  0.07120000  1
  C  C1993  1  0.50170000  0.09480000  0.09480000  1
  C  C1994  1  0.99830000  0.57120000  0.07120000  1
  C  C1995  1  0.00170000  0.59480000  0.09480000  1
  C  C1996  1  0.99830000  0.07120000  0.57120000  1
  C  C1997  1  0.00170000  0.09480000  0.59480000  1
  C  C1998  1  0.75170000  0.07120000  0.17880000  1
  C  C1999  1  0.74830000  0.09480000  0.15520000  1
  C  C2000  1  0.75170000  0.57120000  0.67880000  1
  C  C2001  1  0.74830000  0.59480000  0.65520000  1
  C  C2002  1  0.25170000  0.57120000  0.17880000  1
  C  C2003  1  0.24830000  0.59480000  0.15520000  1
  C  C2004  1  0.99830000  0.17880000  0.67880000  1
  C  C2005  1  0.00170000  0.15520000  0.65520000  1
  C  C2006  1  0.49830000  0.17880000  0.17880000  1
  C  C2007  1  0.50170000  0.15520000  0.15520000  1
  C  C2008  1  0.17880000  0.67880000  0.99830000  1
  C  C2009  1  0.15520000  0.65520000  0.00170000  1
  C  C2010  1  0.17880000  0.17880000  0.49830000  1
  C  C2011  1  0.15520000  0.15520000  0.50170000  1
  C  C2012  1  0.07120000  0.17880000  0.75170000  1
  C  C2013  1  0.09480000  0.15520000  0.74830000  1
  C  C2014  1  0.57120000  0.17880000  0.25170000  1
  C  C2015  1  0.59480000  0.15520000  0.24830000  1
  C  C2016  1  0.57120000  0.57120000  0.49830000  1
  C  C2017  1  0.59480000  0.59480000  0.50170000  1
  C  C2018  1  0.57120000  0.07120000  0.99830000  1
  C  C2019  1  0.59480000  0.09480000  0.00170000  1
  C  C2020  1  0.07120000  0.57120000  0.99830000  1
  C  C2021  1  0.09480000  0.59480000  0.00170000  1
  C  C2022  1  0.07120000  0.07120000  0.49830000  1
  C  C2023  1  0.09480000  0.09480000  0.50170000  1
  C  C2024  1  0.67880000  0.07120000  0.25170000  1
  C  C2025  1  0.65520000  0.09480000  0.24830000  1
  C  C2026  1  0.67880000  0.57120000  0.75170000  1
  C  C2027  1  0.65520000  0.59480000  0.74830000  1
  C  C2028  1  0.17880000  0.57120000  0.25170000  1
  C  C2029  1  0.15520000  0.59480000  0.24830000  1
  C  C2030  1  0.17880000  0.75170000  0.07120000  1
  C  C2031  1  0.15520000  0.74830000  0.09480000  1
  C  C2032  1  0.17880000  0.25170000  0.57120000  1
  C  C2033  1  0.15520000  0.24830000  0.59480000  1
  C  C2034  1  0.67880000  0.99830000  0.17880000  1
  C  C2035  1  0.65520000  0.00170000  0.15520000  1
  C  C2036  1  0.67880000  0.49830000  0.67880000  1
  C  C2037  1  0.65520000  0.50170000  0.65520000  1
  C  C2038  1  0.17880000  0.49830000  0.17880000  1
  C  C2039  1  0.15520000  0.50170000  0.15520000  1
  C  C2040  1  0.07120000  0.25170000  0.67880000  1
  C  C2041  1  0.09480000  0.24830000  0.65520000  1
  C  C2042  1  0.57120000  0.25170000  0.17880000  1
  C  C2043  1  0.59480000  0.24830000  0.15520000  1
  C  C2044  1  0.57120000  0.49830000  0.57120000  1
  C  C2045  1  0.59480000  0.50170000  0.59480000  1
  C  C2046  1  0.57120000  0.99830000  0.07120000  1
  C  C2047  1  0.59480000  0.00170000  0.09480000  1
  C  C2048  1  0.07120000  0.49830000  0.07120000  1
  C  C2049  1  0.09480000  0.50170000  0.09480000  1
  C  C2050  1  0.07120000  0.99830000  0.57120000  1
  C  C2051  1  0.09480000  0.00170000  0.59480000  1
  C  C2052  1  0.67880000  0.25170000  0.07120000  1
  C  C2053  1  0.65520000  0.24830000  0.09480000  1
  C  C2054  1  0.67880000  0.75170000  0.57120000  1
  C  C2055  1  0.65520000  0.74830000  0.59480000  1
  C  C2056  1  0.17880000  0.99830000  0.67880000  1
  C  C2057  1  0.15520000  0.00170000  0.65520000  1
  C  C2058  1  0.07120000  0.75170000  0.17880000  1
  C  C2059  1  0.09480000  0.74830000  0.15520000  1
  C  C2060  1  0.57120000  0.75170000  0.67880000  1
  C  C2061  1  0.59480000  0.74830000  0.65520000  1
  C  C2062  1  0.07120000  0.67880000  0.25170000  1
  C  C2063  1  0.09480000  0.65520000  0.24830000  1
  C  C2064  1  0.57120000  0.67880000  0.75170000  1
  C  C2065  1  0.59480000  0.65520000  0.74830000  1
  C  C2066  1  0.67880000  0.17880000  0.99830000  1
  C  C2067  1  0.65520000  0.15520000  0.00170000  1
  C  C2068  1  0.67880000  0.67880000  0.49830000  1
  C  C2069  1  0.65520000  0.65520000  0.50170000  1
  C  C2070  1  0.17880000  0.07120000  0.75170000  1
  C  C2071  1  0.15520000  0.09480000  0.74830000  1
  C  C2072  1  0.25170000  0.07120000  0.67880000  1
  C  C2073  1  0.24830000  0.09480000  0.65520000  1
  C  C2074  1  0.99830000  0.67880000  0.17880000  1
  C  C2075  1  0.00170000  0.65520000  0.15520000  1
  C  C2076  1  0.49830000  0.67880000  0.67880000  1
  C  C2077  1  0.50170000  0.65520000  0.65520000  1
  C  C2078  1  0.75170000  0.17880000  0.07120000  1
  C  C2079  1  0.74830000  0.15520000  0.09480000  1
  C  C2080  1  0.75170000  0.67880000  0.57120000  1
  C  C2081  1  0.74830000  0.65520000  0.59480000  1
  C  C2082  1  0.74830000  0.32120000  0.92880000  1
  C  C2083  1  0.75170000  0.34480000  0.90520000  1
  C  C2084  1  0.74830000  0.82120000  0.42880000  1
  C  C2085  1  0.75170000  0.84480000  0.40520000  1
  C  C2086  1  0.24830000  0.92880000  0.82120000  1
  C  C2087  1  0.25170000  0.90520000  0.84480000  1
  C  C2088  1  0.00170000  0.82120000  0.32120000  1
  C  C2089  1  0.99830000  0.84480000  0.34480000  1
  C  C2090  1  0.50170000  0.82120000  0.82120000  1
  C  C2091  1  0.49830000  0.84480000  0.84480000  1
  C  C2092  1  0.82120000  0.32120000  0.00170000  1
  C  C2093  1  0.84480000  0.34480000  0.99830000  1
  C  C2094  1  0.82120000  0.82120000  0.50170000  1
  C  C2095  1  0.84480000  0.84480000  0.49830000  1
  C  C2096  1  0.92880000  0.82120000  0.24830000  1
  C  C2097  1  0.90520000  0.84480000  0.25170000  1
  C  C2098  1  0.42880000  0.82120000  0.74830000  1
  C  C2099  1  0.40520000  0.84480000  0.75170000  1
  C  C2100  1  0.32120000  0.92880000  0.74830000  1
  C  C2101  1  0.34480000  0.90520000  0.75170000  1
  C  C2102  1  0.82120000  0.24830000  0.92880000  1
  C  C2103  1  0.84480000  0.25170000  0.90520000  1
  C  C2104  1  0.82120000  0.74830000  0.42880000  1
  C  C2105  1  0.84480000  0.75170000  0.40520000  1
  C  C2106  1  0.32120000  0.00170000  0.82120000  1
  C  C2107  1  0.34480000  0.99830000  0.84480000  1
  C  C2108  1  0.92880000  0.74830000  0.32120000  1
  C  C2109  1  0.90520000  0.75170000  0.34480000  1
  C  C2110  1  0.42880000  0.74830000  0.82120000  1
  C  C2111  1  0.40520000  0.75170000  0.84480000  1
  C  C2112  1  0.50000000  0.57008000  0.42992000  1
  C  C2113  1  0.50000000  0.59310000  0.40690000  1
  C  C2114  1  0.50000000  0.63743000  0.36257000  1
  C  C2115  1  0.50000000  0.66023000  0.33977000  1
  C  C2116  1  0.50000000  0.70447000  0.29553000  1
  C  C2117  1  0.50000000  0.72816000  0.27184000  1
  C  C2118  1  0.50000000  0.07008000  0.92992000  1
  C  C2119  1  0.50000000  0.09310000  0.90690000  1
  C  C2120  1  0.50000000  0.13743000  0.86257000  1
  C  C2121  1  0.50000000  0.16023000  0.83977000  1
  C  C2122  1  0.50000000  0.20447000  0.79553000  1
  C  C2123  1  0.50000000  0.22816000  0.77184000  1
  C  C2124  1  0.00000000  0.57008000  0.92992000  1
  C  C2125  1  0.00000000  0.59310000  0.90690000  1
  C  C2126  1  0.00000000  0.63743000  0.86257000  1
  C  C2127  1  0.00000000  0.66023000  0.83977000  1
  C  C2128  1  0.00000000  0.70447000  0.79553000  1
  C  C2129  1  0.00000000  0.72816000  0.77184000  1
  C  C2130  1  0.00000000  0.07008000  0.42992000  1
  C  C2131  1  0.00000000  0.09310000  0.40690000  1
  C  C2132  1  0.00000000  0.13743000  0.36257000  1
  C  C2133  1  0.00000000  0.16023000  0.33977000  1
  C  C2134  1  0.00000000  0.20447000  0.29553000  1
  C  C2135  1  0.00000000  0.22816000  0.27184000  1
  C  C2136  1  0.25000000  0.67992000  0.92992000  1
  C  C2137  1  0.25000000  0.65690000  0.90690000  1
  C  C2138  1  0.25000000  0.61257000  0.86257000  1
  C  C2139  1  0.25000000  0.58977000  0.83977000  1
  C  C2140  1  0.25000000  0.54553000  0.79553000  1
  C  C2141  1  0.25000000  0.52184000  0.77184000  1
  C  C2142  1  0.25000000  0.17992000  0.42992000  1
  C  C2143  1  0.25000000  0.15690000  0.40690000  1
  C  C2144  1  0.25000000  0.11257000  0.36257000  1
  C  C2145  1  0.25000000  0.08977000  0.33977000  1
  C  C2146  1  0.25000000  0.04553000  0.29553000  1
  C  C2147  1  0.25000000  0.02184000  0.27184000  1
  C  C2148  1  0.75000000  0.67992000  0.42992000  1
  C  C2149  1  0.75000000  0.65690000  0.40690000  1
  C  C2150  1  0.75000000  0.61257000  0.36257000  1
  C  C2151  1  0.75000000  0.58977000  0.33977000  1
  C  C2152  1  0.75000000  0.54553000  0.29553000  1
  C  C2153  1  0.75000000  0.52184000  0.27184000  1
  C  C2154  1  0.75000000  0.17992000  0.92992000  1
  C  C2155  1  0.75000000  0.15690000  0.90690000  1
  C  C2156  1  0.75000000  0.11257000  0.86257000  1
  C  C2157  1  0.75000000  0.08977000  0.83977000  1
  C  C2158  1  0.75000000  0.04553000  0.79553000  1
  C  C2159  1  0.75000000  0.02184000  0.77184000  1
  C  C2160  1  0.75000000  0.07008000  0.32008000  1
  C  C2161  1  0.75000000  0.09310000  0.34310000  1
  C  C2162  1  0.75000000  0.13743000  0.38743000  1
  C  C2163  1  0.75000000  0.16023000  0.41023000  1
  C  C2164  1  0.75000000  0.20447000  0.45447000  1
  C  C2165  1  0.75000000  0.22816000  0.47816000  1
  C  C2166  1  0.75000000  0.57008000  0.82008000  1
  C  C2167  1  0.75000000  0.59310000  0.84310000  1
  C  C2168  1  0.75000000  0.63743000  0.88743000  1
  C  C2169  1  0.75000000  0.66023000  0.91023000  1
  C  C2170  1  0.75000000  0.70447000  0.95447000  1
  C  C2171  1  0.75000000  0.72816000  0.97816000  1
  C  C2172  1  0.25000000  0.07008000  0.82008000  1
  C  C2173  1  0.25000000  0.09310000  0.84310000  1
  C  C2174  1  0.25000000  0.13743000  0.88743000  1
  C  C2175  1  0.25000000  0.16023000  0.91023000  1
  C  C2176  1  0.25000000  0.20447000  0.95447000  1
  C  C2177  1  0.25000000  0.22816000  0.97816000  1
  C  C2178  1  0.25000000  0.57008000  0.32008000  1
  C  C2179  1  0.25000000  0.59310000  0.34310000  1
  C  C2180  1  0.25000000  0.63743000  0.38743000  1
  C  C2181  1  0.25000000  0.66023000  0.41023000  1
  C  C2182  1  0.25000000  0.70447000  0.45447000  1
  C  C2183  1  0.25000000  0.72816000  0.47816000  1
  C  C2184  1  0.00000000  0.17992000  0.82008000  1
  C  C2185  1  0.00000000  0.15690000  0.84310000  1
  C  C2186  1  0.00000000  0.11257000  0.88743000  1
  C  C2187  1  0.00000000  0.08977000  0.91023000  1
  C  C2188  1  0.00000000  0.04553000  0.95447000  1
  C  C2189  1  0.00000000  0.02184000  0.97816000  1
  C  C2190  1  0.00000000  0.67992000  0.32008000  1
  C  C2191  1  0.00000000  0.65690000  0.34310000  1
  C  C2192  1  0.00000000  0.61257000  0.38743000  1
  C  C2193  1  0.00000000  0.58977000  0.41023000  1
  C  C2194  1  0.00000000  0.54553000  0.45447000  1
  C  C2195  1  0.00000000  0.52184000  0.47816000  1
  C  C2196  1  0.50000000  0.17992000  0.32008000  1
  C  C2197  1  0.50000000  0.15690000  0.34310000  1
  C  C2198  1  0.50000000  0.11257000  0.38743000  1
  C  C2199  1  0.50000000  0.08977000  0.41023000  1
  C  C2200  1  0.50000000  0.04553000  0.45447000  1
  C  C2201  1  0.50000000  0.02184000  0.47816000  1
  C  C2202  1  0.50000000  0.67992000  0.82008000  1
  C  C2203  1  0.50000000  0.65690000  0.84310000  1
  C  C2204  1  0.50000000  0.61257000  0.88743000  1
  C  C2205  1  0.50000000  0.58977000  0.91023000  1
  C  C2206  1  0.50000000  0.54553000  0.95447000  1
  C  C2207  1  0.50000000  0.52184000  0.97816000  1
  C  C2208  1  0.42992000  0.50000000  0.57008000  1
  C  C2209  1  0.40690000  0.50000000  0.59310000  1
  C  C2210  1  0.36257000  0.50000000  0.63743000  1
  C  C2211  1  0.33977000  0.50000000  0.66023000  1
  C  C2212  1  0.29553000  0.50000000  0.70447000  1
  C  C2213  1  0.27184000  0.50000000  0.72816000  1
  C  C2214  1  0.42992000  0.00000000  0.07008000  1
  C  C2215  1  0.40690000  0.00000000  0.09310000  1
  C  C2216  1  0.36257000  0.00000000  0.13743000  1
  C  C2217  1  0.33977000  0.00000000  0.16023000  1
  C  C2218  1  0.29553000  0.00000000  0.20447000  1
  C  C2219  1  0.27184000  0.00000000  0.22816000  1
  C  C2220  1  0.92992000  0.50000000  0.07008000  1
  C  C2221  1  0.90690000  0.50000000  0.09310000  1
  C  C2222  1  0.86257000  0.50000000  0.13743000  1
  C  C2223  1  0.83977000  0.50000000  0.16023000  1
  C  C2224  1  0.79553000  0.50000000  0.20447000  1
  C  C2225  1  0.77184000  0.50000000  0.22816000  1
  C  C2226  1  0.92992000  0.00000000  0.57008000  1
  C  C2227  1  0.90690000  0.00000000  0.59310000  1
  C  C2228  1  0.86257000  0.00000000  0.63743000  1
  C  C2229  1  0.83977000  0.00000000  0.66023000  1
  C  C2230  1  0.79553000  0.00000000  0.70447000  1
  C  C2231  1  0.77184000  0.00000000  0.72816000  1
  C  C2232  1  0.92992000  0.25000000  0.67992000  1
  C  C2233  1  0.90690000  0.25000000  0.65690000  1
  C  C2234  1  0.86257000  0.25000000  0.61257000  1
  C  C2235  1  0.83977000  0.25000000  0.58977000  1
  C  C2236  1  0.79553000  0.25000000  0.54553000  1
  C  C2237  1  0.77184000  0.25000000  0.52184000  1
  C  C2238  1  0.92992000  0.75000000  0.17992000  1
  C  C2239  1  0.90690000  0.75000000  0.15690000  1
  C  C2240  1  0.86257000  0.75000000  0.11257000  1
  C  C2241  1  0.83977000  0.75000000  0.08977000  1
  C  C2242  1  0.79553000  0.75000000  0.04553000  1
  C  C2243  1  0.77184000  0.75000000  0.02184000  1
  C  C2244  1  0.42992000  0.25000000  0.17992000  1
  C  C2245  1  0.40690000  0.25000000  0.15690000  1
  C  C2246  1  0.36257000  0.25000000  0.11257000  1
  C  C2247  1  0.33977000  0.25000000  0.08977000  1
  C  C2248  1  0.29553000  0.25000000  0.04553000  1
  C  C2249  1  0.27184000  0.25000000  0.02184000  1
  C  C2250  1  0.42992000  0.75000000  0.67992000  1
  C  C2251  1  0.40690000  0.75000000  0.65690000  1
  C  C2252  1  0.36257000  0.75000000  0.61257000  1
  C  C2253  1  0.33977000  0.75000000  0.58977000  1
  C  C2254  1  0.29553000  0.75000000  0.54553000  1
  C  C2255  1  0.27184000  0.75000000  0.52184000  1
  C  C2256  1  0.32008000  0.75000000  0.07008000  1
  C  C2257  1  0.34310000  0.75000000  0.09310000  1
  C  C2258  1  0.38743000  0.75000000  0.13743000  1
  C  C2259  1  0.41023000  0.75000000  0.16023000  1
  C  C2260  1  0.45447000  0.75000000  0.20447000  1
  C  C2261  1  0.47816000  0.75000000  0.22816000  1
  C  C2262  1  0.32008000  0.25000000  0.57008000  1
  C  C2263  1  0.34310000  0.25000000  0.59310000  1
  C  C2264  1  0.38743000  0.25000000  0.63743000  1
  C  C2265  1  0.41023000  0.25000000  0.66023000  1
  C  C2266  1  0.45447000  0.25000000  0.70447000  1
  C  C2267  1  0.47816000  0.25000000  0.72816000  1
  C  C2268  1  0.82008000  0.75000000  0.57008000  1
  C  C2269  1  0.84310000  0.75000000  0.59310000  1
  C  C2270  1  0.88743000  0.75000000  0.63743000  1
  C  C2271  1  0.91023000  0.75000000  0.66023000  1
  C  C2272  1  0.95447000  0.75000000  0.70447000  1
  C  C2273  1  0.97816000  0.75000000  0.72816000  1
  C  C2274  1  0.82008000  0.25000000  0.07008000  1
  C  C2275  1  0.84310000  0.25000000  0.09310000  1
  C  C2276  1  0.88743000  0.25000000  0.13743000  1
  C  C2277  1  0.91023000  0.25000000  0.16023000  1
  C  C2278  1  0.95447000  0.25000000  0.20447000  1
  C  C2279  1  0.97816000  0.25000000  0.22816000  1
  C  C2280  1  0.82008000  0.00000000  0.17992000  1
  C  C2281  1  0.84310000  0.00000000  0.15690000  1
  C  C2282  1  0.88743000  0.00000000  0.11257000  1
  C  C2283  1  0.91023000  0.00000000  0.08977000  1
  C  C2284  1  0.95447000  0.00000000  0.04553000  1
  C  C2285  1  0.97816000  0.00000000  0.02184000  1
  C  C2286  1  0.82008000  0.50000000  0.67992000  1
  C  C2287  1  0.84310000  0.50000000  0.65690000  1
  C  C2288  1  0.88743000  0.50000000  0.61257000  1
  C  C2289  1  0.91023000  0.50000000  0.58977000  1
  C  C2290  1  0.95447000  0.50000000  0.54553000  1
  C  C2291  1  0.97816000  0.50000000  0.52184000  1
  C  C2292  1  0.32008000  0.00000000  0.67992000  1
  C  C2293  1  0.34310000  0.00000000  0.65690000  1
  C  C2294  1  0.38743000  0.00000000  0.61257000  1
  C  C2295  1  0.41023000  0.00000000  0.58977000  1
  C  C2296  1  0.45447000  0.00000000  0.54553000  1
  C  C2297  1  0.47816000  0.00000000  0.52184000  1
  C  C2298  1  0.32008000  0.50000000  0.17992000  1
  C  C2299  1  0.34310000  0.50000000  0.15690000  1
  C  C2300  1  0.38743000  0.50000000  0.11257000  1
  C  C2301  1  0.41023000  0.50000000  0.08977000  1
  C  C2302  1  0.45447000  0.50000000  0.04553000  1
  C  C2303  1  0.47816000  0.50000000  0.02184000  1
  C  C2304  1  0.57008000  0.42992000  0.50000000  1
  C  C2305  1  0.59310000  0.40690000  0.50000000  1
  C  C2306  1  0.63743000  0.36257000  0.50000000  1
  C  C2307  1  0.66023000  0.33977000  0.50000000  1
  C  C2308  1  0.70447000  0.29553000  0.50000000  1
  C  C2309  1  0.72816000  0.27184000  0.50000000  1
  C  C2310  1  0.57008000  0.92992000  0.00000000  1
  C  C2311  1  0.59310000  0.90690000  0.00000000  1
  C  C2312  1  0.63743000  0.86257000  0.00000000  1
  C  C2313  1  0.66023000  0.83977000  0.00000000  1
  C  C2314  1  0.70447000  0.79553000  0.00000000  1
  C  C2315  1  0.72816000  0.77184000  0.00000000  1
  C  C2316  1  0.07008000  0.42992000  0.00000000  1
  C  C2317  1  0.09310000  0.40690000  0.00000000  1
  C  C2318  1  0.13743000  0.36257000  0.00000000  1
  C  C2319  1  0.16023000  0.33977000  0.00000000  1
  C  C2320  1  0.20447000  0.29553000  0.00000000  1
  C  C2321  1  0.22816000  0.27184000  0.00000000  1
  C  C2322  1  0.07008000  0.92992000  0.50000000  1
  C  C2323  1  0.09310000  0.90690000  0.50000000  1
  C  C2324  1  0.13743000  0.86257000  0.50000000  1
  C  C2325  1  0.16023000  0.83977000  0.50000000  1
  C  C2326  1  0.20447000  0.79553000  0.50000000  1
  C  C2327  1  0.22816000  0.77184000  0.50000000  1
  C  C2328  1  0.67992000  0.92992000  0.25000000  1
  C  C2329  1  0.65690000  0.90690000  0.25000000  1
  C  C2330  1  0.61257000  0.86257000  0.25000000  1
  C  C2331  1  0.58977000  0.83977000  0.25000000  1
  C  C2332  1  0.54553000  0.79553000  0.25000000  1
  C  C2333  1  0.52184000  0.77184000  0.25000000  1
  C  C2334  1  0.67992000  0.42992000  0.75000000  1
  C  C2335  1  0.65690000  0.40690000  0.75000000  1
  C  C2336  1  0.61257000  0.36257000  0.75000000  1
  C  C2337  1  0.58977000  0.33977000  0.75000000  1
  C  C2338  1  0.54553000  0.29553000  0.75000000  1
  C  C2339  1  0.52184000  0.27184000  0.75000000  1
  C  C2340  1  0.17992000  0.92992000  0.75000000  1
  C  C2341  1  0.15690000  0.90690000  0.75000000  1
  C  C2342  1  0.11257000  0.86257000  0.75000000  1
  C  C2343  1  0.08977000  0.83977000  0.75000000  1
  C  C2344  1  0.04553000  0.79553000  0.75000000  1
  C  C2345  1  0.02184000  0.77184000  0.75000000  1
  C  C2346  1  0.17992000  0.42992000  0.25000000  1
  C  C2347  1  0.15690000  0.40690000  0.25000000  1
  C  C2348  1  0.11257000  0.36257000  0.25000000  1
  C  C2349  1  0.08977000  0.33977000  0.25000000  1
  C  C2350  1  0.04553000  0.29553000  0.25000000  1
  C  C2351  1  0.02184000  0.27184000  0.25000000  1
  C  C2352  1  0.07008000  0.32008000  0.75000000  1
  C  C2353  1  0.09310000  0.34310000  0.75000000  1
  C  C2354  1  0.13743000  0.38743000  0.75000000  1
  C  C2355  1  0.16023000  0.41023000  0.75000000  1
  C  C2356  1  0.20447000  0.45447000  0.75000000  1
  C  C2357  1  0.22816000  0.47816000  0.75000000  1
  C  C2358  1  0.07008000  0.82008000  0.25000000  1
  C  C2359  1  0.09310000  0.84310000  0.25000000  1
  C  C2360  1  0.13743000  0.88743000  0.25000000  1
  C  C2361  1  0.16023000  0.91023000  0.25000000  1
  C  C2362  1  0.20447000  0.95447000  0.25000000  1
  C  C2363  1  0.22816000  0.97816000  0.25000000  1
  C  C2364  1  0.57008000  0.32008000  0.25000000  1
  C  C2365  1  0.59310000  0.34310000  0.25000000  1
  C  C2366  1  0.63743000  0.38743000  0.25000000  1
  C  C2367  1  0.66023000  0.41023000  0.25000000  1
  C  C2368  1  0.70447000  0.45447000  0.25000000  1
  C  C2369  1  0.72816000  0.47816000  0.25000000  1
  C  C2370  1  0.57008000  0.82008000  0.75000000  1
  C  C2371  1  0.59310000  0.84310000  0.75000000  1
  C  C2372  1  0.63743000  0.88743000  0.75000000  1
  C  C2373  1  0.66023000  0.91023000  0.75000000  1
  C  C2374  1  0.70447000  0.95447000  0.75000000  1
  C  C2375  1  0.72816000  0.97816000  0.75000000  1
  C  C2376  1  0.17992000  0.82008000  0.00000000  1
  C  C2377  1  0.15690000  0.84310000  0.00000000  1
  C  C2378  1  0.11257000  0.88743000  0.00000000  1
  C  C2379  1  0.08977000  0.91023000  0.00000000  1
  C  C2380  1  0.04553000  0.95447000  0.00000000  1
  C  C2381  1  0.02184000  0.97816000  0.00000000  1
  C  C2382  1  0.17992000  0.32008000  0.50000000  1
  C  C2383  1  0.15690000  0.34310000  0.50000000  1
  C  C2384  1  0.11257000  0.38743000  0.50000000  1
  C  C2385  1  0.08977000  0.41023000  0.50000000  1
  C  C2386  1  0.04553000  0.45447000  0.50000000  1
  C  C2387  1  0.02184000  0.47816000  0.50000000  1
  C  C2388  1  0.67992000  0.82008000  0.50000000  1
  C  C2389  1  0.65690000  0.84310000  0.50000000  1
  C  C2390  1  0.61257000  0.88743000  0.50000000  1
  C  C2391  1  0.58977000  0.91023000  0.50000000  1
  C  C2392  1  0.54553000  0.95447000  0.50000000  1
  C  C2393  1  0.52184000  0.97816000  0.50000000  1
  C  C2394  1  0.67992000  0.32008000  0.00000000  1
  C  C2395  1  0.65690000  0.34310000  0.00000000  1
  C  C2396  1  0.61257000  0.38743000  0.00000000  1
  C  C2397  1  0.58977000  0.41023000  0.00000000  1
  C  C2398  1  0.54553000  0.45447000  0.00000000  1
  C  C2399  1  0.52184000  0.47816000  0.00000000  1
  C  C2400  1  0.50000000  0.42992000  0.57008000  1
  C  C2401  1  0.50000000  0.40690000  0.59310000  1
  C  C2402  1  0.50000000  0.36257000  0.63743000  1
  C  C2403  1  0.50000000  0.33977000  0.66023000  1
  C  C2404  1  0.50000000  0.29553000  0.70447000  1
  C  C2405  1  0.50000000  0.27184000  0.72816000  1
  C  C2406  1  0.50000000  0.92992000  0.07008000  1
  C  C2407  1  0.50000000  0.90690000  0.09310000  1
  C  C2408  1  0.50000000  0.86257000  0.13743000  1
  C  C2409  1  0.50000000  0.83977000  0.16023000  1
  C  C2410  1  0.50000000  0.79553000  0.20447000  1
  C  C2411  1  0.50000000  0.77184000  0.22816000  1
  C  C2412  1  0.00000000  0.42992000  0.07008000  1
  C  C2413  1  0.00000000  0.40690000  0.09310000  1
  C  C2414  1  0.00000000  0.36257000  0.13743000  1
  C  C2415  1  0.00000000  0.33977000  0.16023000  1
  C  C2416  1  0.00000000  0.29553000  0.20447000  1
  C  C2417  1  0.00000000  0.27184000  0.22816000  1
  C  C2418  1  0.00000000  0.92992000  0.57008000  1
  C  C2419  1  0.00000000  0.90690000  0.59310000  1
  C  C2420  1  0.00000000  0.86257000  0.63743000  1
  C  C2421  1  0.00000000  0.83977000  0.66023000  1
  C  C2422  1  0.00000000  0.79553000  0.70447000  1
  C  C2423  1  0.00000000  0.77184000  0.72816000  1
  C  C2424  1  0.75000000  0.32008000  0.07008000  1
  C  C2425  1  0.75000000  0.34310000  0.09310000  1
  C  C2426  1  0.75000000  0.38743000  0.13743000  1
  C  C2427  1  0.75000000  0.41023000  0.16023000  1
  C  C2428  1  0.75000000  0.45447000  0.20447000  1
  C  C2429  1  0.75000000  0.47816000  0.22816000  1
  C  C2430  1  0.75000000  0.82008000  0.57008000  1
  C  C2431  1  0.75000000  0.84310000  0.59310000  1
  C  C2432  1  0.75000000  0.88743000  0.63743000  1
  C  C2433  1  0.75000000  0.91023000  0.66023000  1
  C  C2434  1  0.75000000  0.95447000  0.70447000  1
  C  C2435  1  0.75000000  0.97816000  0.72816000  1
  C  C2436  1  0.25000000  0.32008000  0.57008000  1
  C  C2437  1  0.25000000  0.34310000  0.59310000  1
  C  C2438  1  0.25000000  0.38743000  0.63743000  1
  C  C2439  1  0.25000000  0.41023000  0.66023000  1
  C  C2440  1  0.25000000  0.45447000  0.70447000  1
  C  C2441  1  0.25000000  0.47816000  0.72816000  1
  C  C2442  1  0.25000000  0.82008000  0.07008000  1
  C  C2443  1  0.25000000  0.84310000  0.09310000  1
  C  C2444  1  0.25000000  0.88743000  0.13743000  1
  C  C2445  1  0.25000000  0.91023000  0.16023000  1
  C  C2446  1  0.25000000  0.95447000  0.20447000  1
  C  C2447  1  0.25000000  0.97816000  0.22816000  1
  C  C2448  1  0.25000000  0.92992000  0.67992000  1
  C  C2449  1  0.25000000  0.90690000  0.65690000  1
  C  C2450  1  0.25000000  0.86257000  0.61257000  1
  C  C2451  1  0.25000000  0.83977000  0.58977000  1
  C  C2452  1  0.25000000  0.79553000  0.54553000  1
  C  C2453  1  0.25000000  0.77184000  0.52184000  1
  C  C2454  1  0.25000000  0.42992000  0.17992000  1
  C  C2455  1  0.25000000  0.40690000  0.15690000  1
  C  C2456  1  0.25000000  0.36257000  0.11257000  1
  C  C2457  1  0.25000000  0.33977000  0.08977000  1
  C  C2458  1  0.25000000  0.29553000  0.04553000  1
  C  C2459  1  0.25000000  0.27184000  0.02184000  1
  C  C2460  1  0.75000000  0.92992000  0.17992000  1
  C  C2461  1  0.75000000  0.90690000  0.15690000  1
  C  C2462  1  0.75000000  0.86257000  0.11257000  1
  C  C2463  1  0.75000000  0.83977000  0.08977000  1
  C  C2464  1  0.75000000  0.79553000  0.04553000  1
  C  C2465  1  0.75000000  0.77184000  0.02184000  1
  C  C2466  1  0.75000000  0.42992000  0.67992000  1
  C  C2467  1  0.75000000  0.40690000  0.65690000  1
  C  C2468  1  0.75000000  0.36257000  0.61257000  1
  C  C2469  1  0.75000000  0.33977000  0.58977000  1
  C  C2470  1  0.75000000  0.29553000  0.54553000  1
  C  C2471  1  0.75000000  0.27184000  0.52184000  1
  C  C2472  1  0.00000000  0.82008000  0.17992000  1
  C  C2473  1  0.00000000  0.84310000  0.15690000  1
  C  C2474  1  0.00000000  0.88743000  0.11257000  1
  C  C2475  1  0.00000000  0.91023000  0.08977000  1
  C  C2476  1  0.00000000  0.95447000  0.04553000  1
  C  C2477  1  0.00000000  0.97816000  0.02184000  1
  C  C2478  1  0.00000000  0.32008000  0.67992000  1
  C  C2479  1  0.00000000  0.34310000  0.65690000  1
  C  C2480  1  0.00000000  0.38743000  0.61257000  1
  C  C2481  1  0.00000000  0.41023000  0.58977000  1
  C  C2482  1  0.00000000  0.45447000  0.54553000  1
  C  C2483  1  0.00000000  0.47816000  0.52184000  1
  C  C2484  1  0.50000000  0.82008000  0.67992000  1
  C  C2485  1  0.50000000  0.84310000  0.65690000  1
  C  C2486  1  0.50000000  0.88743000  0.61257000  1
  C  C2487  1  0.50000000  0.91023000  0.58977000  1
  C  C2488  1  0.50000000  0.95447000  0.54553000  1
  C  C2489  1  0.50000000  0.97816000  0.52184000  1
  C  C2490  1  0.50000000  0.32008000  0.17992000  1
  C  C2491  1  0.50000000  0.34310000  0.15690000  1
  C  C2492  1  0.50000000  0.38743000  0.11257000  1
  C  C2493  1  0.50000000  0.41023000  0.08977000  1
  C  C2494  1  0.50000000  0.45447000  0.04553000  1
  C  C2495  1  0.50000000  0.47816000  0.02184000  1
  C  C2496  1  0.57008000  0.50000000  0.42992000  1
  C  C2497  1  0.59310000  0.50000000  0.40690000  1
  C  C2498  1  0.63743000  0.50000000  0.36257000  1
  C  C2499  1  0.66023000  0.50000000  0.33977000  1
  C  C2500  1  0.70447000  0.50000000  0.29553000  1
  C  C2501  1  0.72816000  0.50000000  0.27184000  1
  C  C2502  1  0.57008000  0.00000000  0.92992000  1
  C  C2503  1  0.59310000  0.00000000  0.90690000  1
  C  C2504  1  0.63743000  0.00000000  0.86257000  1
  C  C2505  1  0.66023000  0.00000000  0.83977000  1
  C  C2506  1  0.70447000  0.00000000  0.79553000  1
  C  C2507  1  0.72816000  0.00000000  0.77184000  1
  C  C2508  1  0.07008000  0.50000000  0.92992000  1
  C  C2509  1  0.09310000  0.50000000  0.90690000  1
  C  C2510  1  0.13743000  0.50000000  0.86257000  1
  C  C2511  1  0.16023000  0.50000000  0.83977000  1
  C  C2512  1  0.20447000  0.50000000  0.79553000  1
  C  C2513  1  0.22816000  0.50000000  0.77184000  1
  C  C2514  1  0.07008000  0.00000000  0.42992000  1
  C  C2515  1  0.09310000  0.00000000  0.40690000  1
  C  C2516  1  0.13743000  0.00000000  0.36257000  1
  C  C2517  1  0.16023000  0.00000000  0.33977000  1
  C  C2518  1  0.20447000  0.00000000  0.29553000  1
  C  C2519  1  0.22816000  0.00000000  0.27184000  1
  C  C2520  1  0.07008000  0.75000000  0.32008000  1
  C  C2521  1  0.09310000  0.75000000  0.34310000  1
  C  C2522  1  0.13743000  0.75000000  0.38743000  1
  C  C2523  1  0.16023000  0.75000000  0.41023000  1
  C  C2524  1  0.20447000  0.75000000  0.45447000  1
  C  C2525  1  0.22816000  0.75000000  0.47816000  1
  C  C2526  1  0.07008000  0.25000000  0.82008000  1
  C  C2527  1  0.09310000  0.25000000  0.84310000  1
  C  C2528  1  0.13743000  0.25000000  0.88743000  1
  C  C2529  1  0.16023000  0.25000000  0.91023000  1
  C  C2530  1  0.20447000  0.25000000  0.95447000  1
  C  C2531  1  0.22816000  0.25000000  0.97816000  1
  C  C2532  1  0.57008000  0.75000000  0.82008000  1
  C  C2533  1  0.59310000  0.75000000  0.84310000  1
  C  C2534  1  0.63743000  0.75000000  0.88743000  1
  C  C2535  1  0.66023000  0.75000000  0.91023000  1
  C  C2536  1  0.70447000  0.75000000  0.95447000  1
  C  C2537  1  0.72816000  0.75000000  0.97816000  1
  C  C2538  1  0.57008000  0.25000000  0.32008000  1
  C  C2539  1  0.59310000  0.25000000  0.34310000  1
  C  C2540  1  0.63743000  0.25000000  0.38743000  1
  C  C2541  1  0.66023000  0.25000000  0.41023000  1
  C  C2542  1  0.70447000  0.25000000  0.45447000  1
  C  C2543  1  0.72816000  0.25000000  0.47816000  1
  C  C2544  1  0.67992000  0.25000000  0.92992000  1
  C  C2545  1  0.65690000  0.25000000  0.90690000  1
  C  C2546  1  0.61257000  0.25000000  0.86257000  1
  C  C2547  1  0.58977000  0.25000000  0.83977000  1
  C  C2548  1  0.54553000  0.25000000  0.79553000  1
  C  C2549  1  0.52184000  0.25000000  0.77184000  1
  C  C2550  1  0.67992000  0.75000000  0.42992000  1
  C  C2551  1  0.65690000  0.75000000  0.40690000  1
  C  C2552  1  0.61257000  0.75000000  0.36257000  1
  C  C2553  1  0.58977000  0.75000000  0.33977000  1
  C  C2554  1  0.54553000  0.75000000  0.29553000  1
  C  C2555  1  0.52184000  0.75000000  0.27184000  1
  C  C2556  1  0.17992000  0.25000000  0.42992000  1
  C  C2557  1  0.15690000  0.25000000  0.40690000  1
  C  C2558  1  0.11257000  0.25000000  0.36257000  1
  C  C2559  1  0.08977000  0.25000000  0.33977000  1
  C  C2560  1  0.04553000  0.25000000  0.29553000  1
  C  C2561  1  0.02184000  0.25000000  0.27184000  1
  C  C2562  1  0.17992000  0.75000000  0.92992000  1
  C  C2563  1  0.15690000  0.75000000  0.90690000  1
  C  C2564  1  0.11257000  0.75000000  0.86257000  1
  C  C2565  1  0.08977000  0.75000000  0.83977000  1
  C  C2566  1  0.04553000  0.75000000  0.79553000  1
  C  C2567  1  0.02184000  0.75000000  0.77184000  1
  C  C2568  1  0.17992000  0.00000000  0.82008000  1
  C  C2569  1  0.15690000  0.00000000  0.84310000  1
  C  C2570  1  0.11257000  0.00000000  0.88743000  1
  C  C2571  1  0.08977000  0.00000000  0.91023000  1
  C  C2572  1  0.04553000  0.00000000  0.95447000  1
  C  C2573  1  0.02184000  0.00000000  0.97816000  1
  C  C2574  1  0.17992000  0.50000000  0.32008000  1
  C  C2575  1  0.15690000  0.50000000  0.34310000  1
  C  C2576  1  0.11257000  0.50000000  0.38743000  1
  C  C2577  1  0.08977000  0.50000000  0.41023000  1
  C  C2578  1  0.04553000  0.50000000  0.45447000  1
  C  C2579  1  0.02184000  0.50000000  0.47816000  1
  C  C2580  1  0.67992000  0.00000000  0.32008000  1
  C  C2581  1  0.65690000  0.00000000  0.34310000  1
  C  C2582  1  0.61257000  0.00000000  0.38743000  1
  C  C2583  1  0.58977000  0.00000000  0.41023000  1
  C  C2584  1  0.54553000  0.00000000  0.45447000  1
  C  C2585  1  0.52184000  0.00000000  0.47816000  1
  C  C2586  1  0.67992000  0.50000000  0.82008000  1
  C  C2587  1  0.65690000  0.50000000  0.84310000  1
  C  C2588  1  0.61257000  0.50000000  0.88743000  1
  C  C2589  1  0.58977000  0.50000000  0.91023000  1
  C  C2590  1  0.54553000  0.50000000  0.95447000  1
  C  C2591  1  0.52184000  0.50000000  0.97816000  1
  C  C2592  1  0.42992000  0.57008000  0.50000000  1
  C  C2593  1  0.40690000  0.59310000  0.50000000  1
  C  C2594  1  0.36257000  0.63743000  0.50000000  1
  C  C2595  1  0.33977000  0.66023000  0.50000000  1
  C  C2596  1  0.29553000  0.70447000  0.50000000  1
  C  C2597  1  0.27184000  0.72816000  0.50000000  1
  C  C2598  1  0.42992000  0.07008000  0.00000000  1
  C  C2599  1  0.40690000  0.09310000  0.00000000  1
  C  C2600  1  0.36257000  0.13743000  0.00000000  1
  C  C2601  1  0.33977000  0.16023000  0.00000000  1
  C  C2602  1  0.29553000  0.20447000  0.00000000  1
  C  C2603  1  0.27184000  0.22816000  0.00000000  1
  C  C2604  1  0.92992000  0.57008000  0.00000000  1
  C  C2605  1  0.90690000  0.59310000  0.00000000  1
  C  C2606  1  0.86257000  0.63743000  0.00000000  1
  C  C2607  1  0.83977000  0.66023000  0.00000000  1
  C  C2608  1  0.79553000  0.70447000  0.00000000  1
  C  C2609  1  0.77184000  0.72816000  0.00000000  1
  C  C2610  1  0.92992000  0.07008000  0.50000000  1
  C  C2611  1  0.90690000  0.09310000  0.50000000  1
  C  C2612  1  0.86257000  0.13743000  0.50000000  1
  C  C2613  1  0.83977000  0.16023000  0.50000000  1
  C  C2614  1  0.79553000  0.20447000  0.50000000  1
  C  C2615  1  0.77184000  0.22816000  0.50000000  1
  C  C2616  1  0.32008000  0.07008000  0.75000000  1
  C  C2617  1  0.34310000  0.09310000  0.75000000  1
  C  C2618  1  0.38743000  0.13743000  0.75000000  1
  C  C2619  1  0.41023000  0.16023000  0.75000000  1
  C  C2620  1  0.45447000  0.20447000  0.75000000  1
  C  C2621  1  0.47816000  0.22816000  0.75000000  1
  C  C2622  1  0.32008000  0.57008000  0.25000000  1
  C  C2623  1  0.34310000  0.59310000  0.25000000  1
  C  C2624  1  0.38743000  0.63743000  0.25000000  1
  C  C2625  1  0.41023000  0.66023000  0.25000000  1
  C  C2626  1  0.45447000  0.70447000  0.25000000  1
  C  C2627  1  0.47816000  0.72816000  0.25000000  1
  C  C2628  1  0.82008000  0.07008000  0.25000000  1
  C  C2629  1  0.84310000  0.09310000  0.25000000  1
  C  C2630  1  0.88743000  0.13743000  0.25000000  1
  C  C2631  1  0.91023000  0.16023000  0.25000000  1
  C  C2632  1  0.95447000  0.20447000  0.25000000  1
  C  C2633  1  0.97816000  0.22816000  0.25000000  1
  C  C2634  1  0.82008000  0.57008000  0.75000000  1
  C  C2635  1  0.84310000  0.59310000  0.75000000  1
  C  C2636  1  0.88743000  0.63743000  0.75000000  1
  C  C2637  1  0.91023000  0.66023000  0.75000000  1
  C  C2638  1  0.95447000  0.70447000  0.75000000  1
  C  C2639  1  0.97816000  0.72816000  0.75000000  1
  C  C2640  1  0.92992000  0.67992000  0.25000000  1
  C  C2641  1  0.90690000  0.65690000  0.25000000  1
  C  C2642  1  0.86257000  0.61257000  0.25000000  1
  C  C2643  1  0.83977000  0.58977000  0.25000000  1
  C  C2644  1  0.79553000  0.54553000  0.25000000  1
  C  C2645  1  0.77184000  0.52184000  0.25000000  1
  C  C2646  1  0.92992000  0.17992000  0.75000000  1
  C  C2647  1  0.90690000  0.15690000  0.75000000  1
  C  C2648  1  0.86257000  0.11257000  0.75000000  1
  C  C2649  1  0.83977000  0.08977000  0.75000000  1
  C  C2650  1  0.79553000  0.04553000  0.75000000  1
  C  C2651  1  0.77184000  0.02184000  0.75000000  1
  C  C2652  1  0.42992000  0.67992000  0.75000000  1
  C  C2653  1  0.40690000  0.65690000  0.75000000  1
  C  C2654  1  0.36257000  0.61257000  0.75000000  1
  C  C2655  1  0.33977000  0.58977000  0.75000000  1
  C  C2656  1  0.29553000  0.54553000  0.75000000  1
  C  C2657  1  0.27184000  0.52184000  0.75000000  1
  C  C2658  1  0.42992000  0.17992000  0.25000000  1
  C  C2659  1  0.40690000  0.15690000  0.25000000  1
  C  C2660  1  0.36257000  0.11257000  0.25000000  1
  C  C2661  1  0.33977000  0.08977000  0.25000000  1
  C  C2662  1  0.29553000  0.04553000  0.25000000  1
  C  C2663  1  0.27184000  0.02184000  0.25000000  1
  C  C2664  1  0.82008000  0.17992000  0.00000000  1
  C  C2665  1  0.84310000  0.15690000  0.00000000  1
  C  C2666  1  0.88743000  0.11257000  0.00000000  1
  C  C2667  1  0.91023000  0.08977000  0.00000000  1
  C  C2668  1  0.95447000  0.04553000  0.00000000  1
  C  C2669  1  0.97816000  0.02184000  0.00000000  1
  C  C2670  1  0.82008000  0.67992000  0.50000000  1
  C  C2671  1  0.84310000  0.65690000  0.50000000  1
  C  C2672  1  0.88743000  0.61257000  0.50000000  1
  C  C2673  1  0.91023000  0.58977000  0.50000000  1
  C  C2674  1  0.95447000  0.54553000  0.50000000  1
  C  C2675  1  0.97816000  0.52184000  0.50000000  1
  C  C2676  1  0.32008000  0.17992000  0.50000000  1
  C  C2677  1  0.34310000  0.15690000  0.50000000  1
  C  C2678  1  0.38743000  0.11257000  0.50000000  1
  C  C2679  1  0.41023000  0.08977000  0.50000000  1
  C  C2680  1  0.45447000  0.04553000  0.50000000  1
  C  C2681  1  0.47816000  0.02184000  0.50000000  1
  C  C2682  1  0.32008000  0.67992000  0.00000000  1
  C  C2683  1  0.34310000  0.65690000  0.00000000  1
  C  C2684  1  0.38743000  0.61257000  0.00000000  1
  C  C2685  1  0.41023000  0.58977000  0.00000000  1
  C  C2686  1  0.45447000  0.54553000  0.00000000  1
  C  C2687  1  0.47816000  0.52184000  0.00000000  1
  O  O2688  1  0.50096000  0.54349000  0.42119000  1
  O  O2689  1  0.45933000  0.50041000  0.41689000  1
  O  O2690  1  0.50096000  0.04349000  0.92119000  1
  O  O2691  1  0.45933000  0.00041000  0.91689000  1
  O  O2692  1  0.00096000  0.54349000  0.92119000  1
  O  O2693  1  0.95933000  0.50041000  0.91689000  1
  O  O2694  1  0.00096000  0.04349000  0.42119000  1
  O  O2695  1  0.95933000  0.00041000  0.41689000  1
  O  O2696  1  0.24904000  0.70651000  0.92119000  1
  O  O2697  1  0.29067000  0.74959000  0.91689000  1
  O  O2698  1  0.24904000  0.20651000  0.42119000  1
  O  O2699  1  0.29067000  0.24959000  0.41689000  1
  O  O2700  1  0.74904000  0.70651000  0.42119000  1
  O  O2701  1  0.79067000  0.74959000  0.41689000  1
  O  O2702  1  0.74904000  0.20651000  0.92119000  1
  O  O2703  1  0.79067000  0.24959000  0.91689000  1
  O  O2704  1  0.74904000  0.04349000  0.32881000  1
  O  O2705  1  0.79067000  0.00041000  0.33311000  1
  O  O2706  1  0.74904000  0.54349000  0.82881000  1
  O  O2707  1  0.79067000  0.50041000  0.83311000  1
  O  O2708  1  0.24904000  0.04349000  0.82881000  1
  O  O2709  1  0.29067000  0.00041000  0.83311000  1
  O  O2710  1  0.24904000  0.54349000  0.32881000  1
  O  O2711  1  0.29067000  0.50041000  0.33311000  1
  O  O2712  1  0.00096000  0.20651000  0.82881000  1
  O  O2713  1  0.95933000  0.24959000  0.83311000  1
  O  O2714  1  0.00096000  0.70651000  0.32881000  1
  O  O2715  1  0.95933000  0.74959000  0.33311000  1
  O  O2716  1  0.50096000  0.20651000  0.32881000  1
  O  O2717  1  0.45933000  0.24959000  0.33311000  1
  O  O2718  1  0.50096000  0.70651000  0.82881000  1
  O  O2719  1  0.45933000  0.74959000  0.83311000  1
  O  O2720  1  0.42119000  0.50096000  0.54349000  1
  O  O2721  1  0.41689000  0.45933000  0.50041000  1
  O  O2722  1  0.42119000  0.00096000  0.04349000  1
  O  O2723  1  0.41689000  0.95933000  0.00041000  1
  O  O2724  1  0.92119000  0.50096000  0.04349000  1
  O  O2725  1  0.91689000  0.45933000  0.00041000  1
  O  O2726  1  0.92119000  0.00096000  0.54349000  1
  O  O2727  1  0.91689000  0.95933000  0.50041000  1
  O  O2728  1  0.92119000  0.24904000  0.70651000  1
  O  O2729  1  0.91689000  0.29067000  0.74959000  1
  O  O2730  1  0.92119000  0.74904000  0.20651000  1
  O  O2731  1  0.91689000  0.79067000  0.24959000  1
  O  O2732  1  0.42119000  0.24904000  0.20651000  1
  O  O2733  1  0.41689000  0.29067000  0.24959000  1
  O  O2734  1  0.42119000  0.74904000  0.70651000  1
  O  O2735  1  0.41689000  0.79067000  0.74959000  1
  O  O2736  1  0.32881000  0.74904000  0.04349000  1
  O  O2737  1  0.33311000  0.79067000  0.00041000  1
  O  O2738  1  0.32881000  0.24904000  0.54349000  1
  O  O2739  1  0.33311000  0.29067000  0.50041000  1
  O  O2740  1  0.82881000  0.74904000  0.54349000  1
  O  O2741  1  0.83311000  0.79067000  0.50041000  1
  O  O2742  1  0.82881000  0.24904000  0.04349000  1
  O  O2743  1  0.83311000  0.29067000  0.00041000  1
  O  O2744  1  0.82881000  0.00096000  0.20651000  1
  O  O2745  1  0.83311000  0.95933000  0.24959000  1
  O  O2746  1  0.82881000  0.50096000  0.70651000  1
  O  O2747  1  0.83311000  0.45933000  0.74959000  1
  O  O2748  1  0.32881000  0.00096000  0.70651000  1
  O  O2749  1  0.33311000  0.95933000  0.74959000  1
  O  O2750  1  0.32881000  0.50096000  0.20651000  1
  O  O2751  1  0.33311000  0.45933000  0.24959000  1
  O  O2752  1  0.54349000  0.42119000  0.50096000  1
  O  O2753  1  0.50041000  0.41689000  0.45933000  1
  O  O2754  1  0.54349000  0.92119000  0.00096000  1
  O  O2755  1  0.50041000  0.91689000  0.95933000  1
  O  O2756  1  0.04349000  0.42119000  0.00096000  1
  O  O2757  1  0.00041000  0.41689000  0.95933000  1
  O  O2758  1  0.04349000  0.92119000  0.50096000  1
  O  O2759  1  0.00041000  0.91689000  0.45933000  1
  O  O2760  1  0.70651000  0.92119000  0.24904000  1
  O  O2761  1  0.74959000  0.91689000  0.29067000  1
  O  O2762  1  0.70651000  0.42119000  0.74904000  1
  O  O2763  1  0.74959000  0.41689000  0.79067000  1
  O  O2764  1  0.20651000  0.92119000  0.74904000  1
  O  O2765  1  0.24959000  0.91689000  0.79067000  1
  O  O2766  1  0.20651000  0.42119000  0.24904000  1
  O  O2767  1  0.24959000  0.41689000  0.29067000  1
  O  O2768  1  0.04349000  0.32881000  0.74904000  1
  O  O2769  1  0.00041000  0.33311000  0.79067000  1
  O  O2770  1  0.04349000  0.82881000  0.24904000  1
  O  O2771  1  0.00041000  0.83311000  0.29067000  1
  O  O2772  1  0.54349000  0.32881000  0.24904000  1
  O  O2773  1  0.50041000  0.33311000  0.29067000  1
  O  O2774  1  0.54349000  0.82881000  0.74904000  1
  O  O2775  1  0.50041000  0.83311000  0.79067000  1
  O  O2776  1  0.20651000  0.82881000  0.00096000  1
  O  O2777  1  0.24959000  0.83311000  0.95933000  1
  O  O2778  1  0.20651000  0.32881000  0.50096000  1
  O  O2779  1  0.24959000  0.33311000  0.45933000  1
  O  O2780  1  0.70651000  0.82881000  0.50096000  1
  O  O2781  1  0.74959000  0.83311000  0.45933000  1
  O  O2782  1  0.70651000  0.32881000  0.00096000  1
  O  O2783  1  0.74959000  0.33311000  0.95933000  1
  O  O2784  1  0.29349000  0.75096000  0.07881000  1
  O  O2785  1  0.25041000  0.70933000  0.08311000  1
  O  O2786  1  0.29349000  0.25096000  0.57881000  1
  O  O2787  1  0.25041000  0.20933000  0.58311000  1
  O  O2788  1  0.79349000  0.75096000  0.57881000  1
  O  O2789  1  0.75041000  0.70933000  0.58311000  1
  O  O2790  1  0.79349000  0.25096000  0.07881000  1
  O  O2791  1  0.75041000  0.20933000  0.08311000  1
  O  O2792  1  0.45651000  0.49904000  0.57881000  1
  O  O2793  1  0.49959000  0.54067000  0.58311000  1
  O  O2794  1  0.45651000  0.99904000  0.07881000  1
  O  O2795  1  0.49959000  0.04067000  0.08311000  1
  O  O2796  1  0.95651000  0.49904000  0.07881000  1
  O  O2797  1  0.99959000  0.54067000  0.08311000  1
  O  O2798  1  0.95651000  0.99904000  0.57881000  1
  O  O2799  1  0.99959000  0.04067000  0.58311000  1
  O  O2800  1  0.79349000  0.99904000  0.17119000  1
  O  O2801  1  0.75041000  0.04067000  0.16689000  1
  O  O2802  1  0.79349000  0.49904000  0.67119000  1
  O  O2803  1  0.75041000  0.54067000  0.66689000  1
  O  O2804  1  0.29349000  0.99904000  0.67119000  1
  O  O2805  1  0.25041000  0.04067000  0.66689000  1
  O  O2806  1  0.29349000  0.49904000  0.17119000  1
  O  O2807  1  0.25041000  0.54067000  0.16689000  1
  O  O2808  1  0.95651000  0.25096000  0.67119000  1
  O  O2809  1  0.99959000  0.20933000  0.66689000  1
  O  O2810  1  0.95651000  0.75096000  0.17119000  1
  O  O2811  1  0.99959000  0.70933000  0.16689000  1
  O  O2812  1  0.45651000  0.25096000  0.17119000  1
  O  O2813  1  0.49959000  0.20933000  0.16689000  1
  O  O2814  1  0.45651000  0.75096000  0.67119000  1
  O  O2815  1  0.49959000  0.70933000  0.66689000  1
  O  O2816  1  0.25096000  0.67119000  0.95651000  1
  O  O2817  1  0.20933000  0.66689000  0.99959000  1
  O  O2818  1  0.25096000  0.17119000  0.45651000  1
  O  O2819  1  0.20933000  0.16689000  0.49959000  1
  O  O2820  1  0.75096000  0.67119000  0.45651000  1
  O  O2821  1  0.70933000  0.66689000  0.49959000  1
  O  O2822  1  0.75096000  0.17119000  0.95651000  1
  O  O2823  1  0.70933000  0.16689000  0.99959000  1
  O  O2824  1  0.99904000  0.17119000  0.79349000  1
  O  O2825  1  0.04067000  0.16689000  0.75041000  1
  O  O2826  1  0.99904000  0.67119000  0.29349000  1
  O  O2827  1  0.04067000  0.66689000  0.25041000  1
  O  O2828  1  0.49904000  0.17119000  0.29349000  1
  O  O2829  1  0.54067000  0.16689000  0.25041000  1
  O  O2830  1  0.49904000  0.67119000  0.79349000  1
  O  O2831  1  0.54067000  0.66689000  0.75041000  1
  O  O2832  1  0.49904000  0.57881000  0.45651000  1
  O  O2833  1  0.54067000  0.58311000  0.49959000  1
  O  O2834  1  0.49904000  0.07881000  0.95651000  1
  O  O2835  1  0.54067000  0.08311000  0.99959000  1
  O  O2836  1  0.99904000  0.57881000  0.95651000  1
  O  O2837  1  0.04067000  0.58311000  0.99959000  1
  O  O2838  1  0.99904000  0.07881000  0.45651000  1
  O  O2839  1  0.04067000  0.08311000  0.49959000  1
  O  O2840  1  0.75096000  0.07881000  0.29349000  1
  O  O2841  1  0.70933000  0.08311000  0.25041000  1
  O  O2842  1  0.75096000  0.57881000  0.79349000  1
  O  O2843  1  0.70933000  0.58311000  0.75041000  1
  O  O2844  1  0.25096000  0.07881000  0.79349000  1
  O  O2845  1  0.20933000  0.08311000  0.75041000  1
  O  O2846  1  0.25096000  0.57881000  0.29349000  1
  O  O2847  1  0.20933000  0.58311000  0.25041000  1
  O  O2848  1  0.17119000  0.79349000  0.99904000  1
  O  O2849  1  0.16689000  0.75041000  0.04067000  1
  O  O2850  1  0.17119000  0.29349000  0.49904000  1
  O  O2851  1  0.16689000  0.25041000  0.54067000  1
  O  O2852  1  0.67119000  0.79349000  0.49904000  1
  O  O2853  1  0.66689000  0.75041000  0.54067000  1
  O  O2854  1  0.67119000  0.29349000  0.99904000  1
  O  O2855  1  0.66689000  0.25041000  0.04067000  1
  O  O2856  1  0.67119000  0.95651000  0.25096000  1
  O  O2857  1  0.66689000  0.99959000  0.20933000  1
  O  O2858  1  0.67119000  0.45651000  0.75096000  1
  O  O2859  1  0.66689000  0.49959000  0.70933000  1
  O  O2860  1  0.17119000  0.95651000  0.75096000  1
  O  O2861  1  0.16689000  0.99959000  0.70933000  1
  O  O2862  1  0.17119000  0.45651000  0.25096000  1
  O  O2863  1  0.16689000  0.49959000  0.20933000  1
  O  O2864  1  0.07881000  0.29349000  0.75096000  1
  O  O2865  1  0.08311000  0.25041000  0.70933000  1
  O  O2866  1  0.07881000  0.79349000  0.25096000  1
  O  O2867  1  0.08311000  0.75041000  0.20933000  1
  O  O2868  1  0.57881000  0.29349000  0.25096000  1
  O  O2869  1  0.58311000  0.25041000  0.20933000  1
  O  O2870  1  0.57881000  0.79349000  0.75096000  1
  O  O2871  1  0.58311000  0.75041000  0.70933000  1
  O  O2872  1  0.57881000  0.45651000  0.49904000  1
  O  O2873  1  0.58311000  0.49959000  0.54067000  1
  O  O2874  1  0.57881000  0.95651000  0.99904000  1
  O  O2875  1  0.58311000  0.99959000  0.04067000  1
  O  O2876  1  0.07881000  0.45651000  0.99904000  1
  O  O2877  1  0.08311000  0.49959000  0.04067000  1
  O  O2878  1  0.07881000  0.95651000  0.49904000  1
  O  O2879  1  0.08311000  0.99959000  0.54067000  1
  O  O2880  1  0.49904000  0.45651000  0.57881000  1
  O  O2881  1  0.54067000  0.49959000  0.58311000  1
  O  O2882  1  0.49904000  0.95651000  0.07881000  1
  O  O2883  1  0.54067000  0.99959000  0.08311000  1
  O  O2884  1  0.99904000  0.45651000  0.07881000  1
  O  O2885  1  0.04067000  0.49959000  0.08311000  1
  O  O2886  1  0.99904000  0.95651000  0.57881000  1
  O  O2887  1  0.04067000  0.99959000  0.58311000  1
  O  O2888  1  0.75096000  0.29349000  0.07881000  1
  O  O2889  1  0.70933000  0.25041000  0.08311000  1
  O  O2890  1  0.75096000  0.79349000  0.57881000  1
  O  O2891  1  0.70933000  0.75041000  0.58311000  1
  O  O2892  1  0.25096000  0.29349000  0.57881000  1
  O  O2893  1  0.20933000  0.25041000  0.58311000  1
  O  O2894  1  0.25096000  0.79349000  0.07881000  1
  O  O2895  1  0.20933000  0.75041000  0.08311000  1
  O  O2896  1  0.25096000  0.95651000  0.67119000  1
  O  O2897  1  0.20933000  0.99959000  0.66689000  1
  O  O2898  1  0.25096000  0.45651000  0.17119000  1
  O  O2899  1  0.20933000  0.49959000  0.16689000  1
  O  O2900  1  0.75096000  0.95651000  0.17119000  1
  O  O2901  1  0.70933000  0.99959000  0.16689000  1
  O  O2902  1  0.75096000  0.45651000  0.67119000  1
  O  O2903  1  0.70933000  0.49959000  0.66689000  1
  O  O2904  1  0.99904000  0.79349000  0.17119000  1
  O  O2905  1  0.04067000  0.75041000  0.16689000  1
  O  O2906  1  0.99904000  0.29349000  0.67119000  1
  O  O2907  1  0.04067000  0.25041000  0.66689000  1
  O  O2908  1  0.49904000  0.79349000  0.67119000  1
  O  O2909  1  0.54067000  0.75041000  0.66689000  1
  O  O2910  1  0.49904000  0.29349000  0.17119000  1
  O  O2911  1  0.54067000  0.25041000  0.16689000  1
  O  O2912  1  0.57881000  0.49904000  0.45651000  1
  O  O2913  1  0.58311000  0.54067000  0.49959000  1
  O  O2914  1  0.57881000  0.99904000  0.95651000  1
  O  O2915  1  0.58311000  0.04067000  0.99959000  1
  O  O2916  1  0.07881000  0.49904000  0.95651000  1
  O  O2917  1  0.08311000  0.54067000  0.99959000  1
  O  O2918  1  0.07881000  0.99904000  0.45651000  1
  O  O2919  1  0.08311000  0.04067000  0.49959000  1
  O  O2920  1  0.07881000  0.75096000  0.29349000  1
  O  O2921  1  0.08311000  0.70933000  0.25041000  1
  O  O2922  1  0.07881000  0.25096000  0.79349000  1
  O  O2923  1  0.08311000  0.20933000  0.75041000  1
  O  O2924  1  0.57881000  0.75096000  0.79349000  1
  O  O2925  1  0.58311000  0.70933000  0.75041000  1
  O  O2926  1  0.57881000  0.25096000  0.29349000  1
  O  O2927  1  0.58311000  0.20933000  0.25041000  1
  O  O2928  1  0.67119000  0.25096000  0.95651000  1
  O  O2929  1  0.66689000  0.20933000  0.99959000  1
  O  O2930  1  0.67119000  0.75096000  0.45651000  1
  O  O2931  1  0.66689000  0.70933000  0.49959000  1
  O  O2932  1  0.17119000  0.25096000  0.45651000  1
  O  O2933  1  0.16689000  0.20933000  0.49959000  1
  O  O2934  1  0.17119000  0.75096000  0.95651000  1
  O  O2935  1  0.16689000  0.70933000  0.99959000  1
  O  O2936  1  0.17119000  0.99904000  0.79349000  1
  O  O2937  1  0.16689000  0.04067000  0.75041000  1
  O  O2938  1  0.17119000  0.49904000  0.29349000  1
  O  O2939  1  0.16689000  0.54067000  0.25041000  1
  O  O2940  1  0.67119000  0.99904000  0.29349000  1
  O  O2941  1  0.66689000  0.04067000  0.25041000  1
  O  O2942  1  0.67119000  0.49904000  0.79349000  1
  O  O2943  1  0.66689000  0.54067000  0.75041000  1
  O  O2944  1  0.45651000  0.57881000  0.49904000  1
  O  O2945  1  0.49959000  0.58311000  0.54067000  1
  O  O2946  1  0.45651000  0.07881000  0.99904000  1
  O  O2947  1  0.49959000  0.08311000  0.04067000  1
  O  O2948  1  0.95651000  0.57881000  0.99904000  1
  O  O2949  1  0.99959000  0.58311000  0.04067000  1
  O  O2950  1  0.95651000  0.07881000  0.49904000  1
  O  O2951  1  0.99959000  0.08311000  0.54067000  1
  O  O2952  1  0.29349000  0.07881000  0.75096000  1
  O  O2953  1  0.25041000  0.08311000  0.70933000  1
  O  O2954  1  0.29349000  0.57881000  0.25096000  1
  O  O2955  1  0.25041000  0.58311000  0.20933000  1
  O  O2956  1  0.79349000  0.07881000  0.25096000  1
  O  O2957  1  0.75041000  0.08311000  0.20933000  1
  O  O2958  1  0.79349000  0.57881000  0.75096000  1
  O  O2959  1  0.75041000  0.58311000  0.70933000  1
  O  O2960  1  0.95651000  0.67119000  0.25096000  1
  O  O2961  1  0.99959000  0.66689000  0.20933000  1
  O  O2962  1  0.95651000  0.17119000  0.75096000  1
  O  O2963  1  0.99959000  0.16689000  0.70933000  1
  O  O2964  1  0.45651000  0.67119000  0.75096000  1
  O  O2965  1  0.49959000  0.66689000  0.70933000  1
  O  O2966  1  0.45651000  0.17119000  0.25096000  1
  O  O2967  1  0.49959000  0.16689000  0.20933000  1
  O  O2968  1  0.79349000  0.17119000  0.99904000  1
  O  O2969  1  0.75041000  0.16689000  0.04067000  1
  O  O2970  1  0.79349000  0.67119000  0.49904000  1
  O  O2971  1  0.75041000  0.66689000  0.54067000  1
  O  O2972  1  0.29349000  0.17119000  0.49904000  1
  O  O2973  1  0.25041000  0.16689000  0.54067000  1
  O  O2974  1  0.29349000  0.67119000  0.99904000  1
  O  O2975  1  0.25041000  0.66689000  0.04067000  1
  O  O2976  1  0.70651000  0.24904000  0.92119000  1
  O  O2977  1  0.74959000  0.29067000  0.91689000  1
  O  O2978  1  0.70651000  0.74904000  0.42119000  1
  O  O2979  1  0.74959000  0.79067000  0.41689000  1
  O  O2980  1  0.20651000  0.24904000  0.42119000  1
  O  O2981  1  0.24959000  0.29067000  0.41689000  1
  O  O2982  1  0.20651000  0.74904000  0.92119000  1
  O  O2983  1  0.24959000  0.79067000  0.91689000  1
  O  O2984  1  0.54349000  0.50096000  0.42119000  1
  O  O2985  1  0.50041000  0.45933000  0.41689000  1
  O  O2986  1  0.54349000  0.00096000  0.92119000  1
  O  O2987  1  0.50041000  0.95933000  0.91689000  1
  O  O2988  1  0.04349000  0.50096000  0.92119000  1
  O  O2989  1  0.00041000  0.45933000  0.91689000  1
  O  O2990  1  0.04349000  0.00096000  0.42119000  1
  O  O2991  1  0.00041000  0.95933000  0.41689000  1
  O  O2992  1  0.20651000  0.00096000  0.82881000  1
  O  O2993  1  0.24959000  0.95933000  0.83311000  1
  O  O2994  1  0.20651000  0.50096000  0.32881000  1
  O  O2995  1  0.24959000  0.45933000  0.33311000  1
  O  O2996  1  0.70651000  0.00096000  0.32881000  1
  O  O2997  1  0.74959000  0.95933000  0.33311000  1
  O  O2998  1  0.70651000  0.50096000  0.82881000  1
  O  O2999  1  0.74959000  0.45933000  0.83311000  1
  O  O3000  1  0.04349000  0.74904000  0.32881000  1
  O  O3001  1  0.00041000  0.79067000  0.33311000  1
  O  O3002  1  0.04349000  0.24904000  0.82881000  1
  O  O3003  1  0.00041000  0.29067000  0.83311000  1
  O  O3004  1  0.54349000  0.74904000  0.82881000  1
  O  O3005  1  0.50041000  0.79067000  0.83311000  1
  O  O3006  1  0.54349000  0.24904000  0.32881000  1
  O  O3007  1  0.50041000  0.29067000  0.33311000  1
  O  O3008  1  0.74904000  0.32881000  0.04349000  1
  O  O3009  1  0.79067000  0.33311000  0.00041000  1
  O  O3010  1  0.74904000  0.82881000  0.54349000  1
  O  O3011  1  0.79067000  0.83311000  0.50041000  1
  O  O3012  1  0.24904000  0.32881000  0.54349000  1
  O  O3013  1  0.29067000  0.33311000  0.50041000  1
  O  O3014  1  0.24904000  0.82881000  0.04349000  1
  O  O3015  1  0.29067000  0.83311000  0.00041000  1
  O  O3016  1  0.00096000  0.82881000  0.20651000  1
  O  O3017  1  0.95933000  0.83311000  0.24959000  1
  O  O3018  1  0.00096000  0.32881000  0.70651000  1
  O  O3019  1  0.95933000  0.33311000  0.74959000  1
  O  O3020  1  0.50096000  0.82881000  0.70651000  1
  O  O3021  1  0.45933000  0.83311000  0.74959000  1
  O  O3022  1  0.50096000  0.32881000  0.20651000  1
  O  O3023  1  0.45933000  0.33311000  0.24959000  1
  O  O3024  1  0.50096000  0.42119000  0.54349000  1
  O  O3025  1  0.45933000  0.41689000  0.50041000  1
  O  O3026  1  0.50096000  0.92119000  0.04349000  1
  O  O3027  1  0.45933000  0.91689000  0.00041000  1
  O  O3028  1  0.00096000  0.42119000  0.04349000  1
  O  O3029  1  0.95933000  0.41689000  0.00041000  1
  O  O3030  1  0.00096000  0.92119000  0.54349000  1
  O  O3031  1  0.95933000  0.91689000  0.50041000  1
  O  O3032  1  0.24904000  0.92119000  0.70651000  1
  O  O3033  1  0.29067000  0.91689000  0.74959000  1
  O  O3034  1  0.24904000  0.42119000  0.20651000  1
  O  O3035  1  0.29067000  0.41689000  0.24959000  1
  O  O3036  1  0.74904000  0.92119000  0.20651000  1
  O  O3037  1  0.79067000  0.91689000  0.24959000  1
  O  O3038  1  0.74904000  0.42119000  0.70651000  1
  O  O3039  1  0.79067000  0.41689000  0.74959000  1
  O  O3040  1  0.82881000  0.20651000  0.00096000  1
  O  O3041  1  0.83311000  0.24959000  0.95933000  1
  O  O3042  1  0.82881000  0.70651000  0.50096000  1
  O  O3043  1  0.83311000  0.74959000  0.45933000  1
  O  O3044  1  0.32881000  0.20651000  0.50096000  1
  O  O3045  1  0.33311000  0.24959000  0.45933000  1
  O  O3046  1  0.32881000  0.70651000  0.00096000  1
  O  O3047  1  0.33311000  0.74959000  0.95933000  1
  O  O3048  1  0.32881000  0.04349000  0.74904000  1
  O  O3049  1  0.33311000  0.00041000  0.79067000  1
  O  O3050  1  0.32881000  0.54349000  0.24904000  1
  O  O3051  1  0.33311000  0.50041000  0.29067000  1
  O  O3052  1  0.82881000  0.04349000  0.24904000  1
  O  O3053  1  0.83311000  0.00041000  0.29067000  1
  O  O3054  1  0.82881000  0.54349000  0.74904000  1
  O  O3055  1  0.83311000  0.50041000  0.79067000  1
  O  O3056  1  0.92119000  0.70651000  0.24904000  1
  O  O3057  1  0.91689000  0.74959000  0.29067000  1
  O  O3058  1  0.92119000  0.20651000  0.74904000  1
  O  O3059  1  0.91689000  0.24959000  0.79067000  1
  O  O3060  1  0.42119000  0.70651000  0.74904000  1
  O  O3061  1  0.41689000  0.74959000  0.79067000  1
  O  O3062  1  0.42119000  0.20651000  0.24904000  1
  O  O3063  1  0.41689000  0.24959000  0.29067000  1
  O  O3064  1  0.42119000  0.54349000  0.50096000  1
  O  O3065  1  0.41689000  0.50041000  0.45933000  1
  O  O3066  1  0.42119000  0.04349000  0.00096000  1
  O  O3067  1  0.41689000  0.00041000  0.95933000  1
  O  O3068  1  0.92119000  0.54349000  0.00096000  1
  O  O3069  1  0.91689000  0.50041000  0.95933000  1
  O  O3070  1  0.92119000  0.04349000  0.50096000  1
  O  O3071  1  0.91689000  0.00041000  0.45933000  1
  O  O3072  1  0.47084000  0.47084000  0.47084000  1
  O  O3073  1  0.47084000  0.97084000  0.97084000  1
  O  O3074  1  0.97084000  0.47084000  0.97084000  1
  O  O3075  1  0.97084000  0.97084000  0.47084000  1
  O  O3076  1  0.27916000  0.77916000  0.97084000  1
  O  O3077  1  0.27916000  0.27916000  0.47084000  1
  O  O3078  1  0.77916000  0.97084000  0.27916000  1
  O  O3079  1  0.77916000  0.47084000  0.77916000  1
  O  O3080  1  0.27916000  0.47084000  0.27916000  1
  O  O3081  1  0.97084000  0.27916000  0.77916000  1
  O  O3082  1  0.47084000  0.27916000  0.27916000  1
  O  O3083  1  0.22084000  0.72084000  0.02916000  1
  O  O3084  1  0.22084000  0.22084000  0.52916000  1
  O  O3085  1  0.52916000  0.52916000  0.52916000  1
  O  O3086  1  0.52916000  0.02916000  0.02916000  1
  O  O3087  1  0.02916000  0.52916000  0.02916000  1
  O  O3088  1  0.02916000  0.02916000  0.52916000  1
  O  O3089  1  0.72084000  0.02916000  0.22084000  1
  O  O3090  1  0.72084000  0.52916000  0.72084000  1
  O  O3091  1  0.22084000  0.52916000  0.22084000  1
  O  O3092  1  0.02916000  0.22084000  0.72084000  1
  O  O3093  1  0.52916000  0.22084000  0.22084000  1
  O  O3094  1  0.72084000  0.22084000  0.02916000  1
  O  O3095  1  0.72084000  0.72084000  0.52916000  1
  O  O3096  1  0.22084000  0.02916000  0.72084000  1
  O  O3097  1  0.02916000  0.72084000  0.22084000  1
  O  O3098  1  0.52916000  0.72084000  0.72084000  1
  O  O3099  1  0.77916000  0.27916000  0.97084000  1
  O  O3100  1  0.77916000  0.77916000  0.47084000  1
  O  O3101  1  0.27916000  0.97084000  0.77916000  1
  O  O3102  1  0.97084000  0.77916000  0.27916000  1
  O  O3103  1  0.47084000  0.77916000  0.77916000  1
  O  O3104  1  0.47282000  0.52715000  0.47282000  1
  O  O3105  1  0.47282000  0.02715000  0.97282000  1
  O  O3106  1  0.97282000  0.52715000  0.97282000  1
  O  O3107  1  0.97282000  0.02715000  0.47282000  1
  O  O3108  1  0.27718000  0.72285000  0.97282000  1
  O  O3109  1  0.27718000  0.22285000  0.47282000  1
  O  O3110  1  0.77718000  0.02715000  0.27718000  1
  O  O3111  1  0.77718000  0.52715000  0.77718000  1
  O  O3112  1  0.27718000  0.52715000  0.27718000  1
  O  O3113  1  0.97282000  0.22285000  0.77718000  1
  O  O3114  1  0.47282000  0.22285000  0.27718000  1
  O  O3115  1  0.47282000  0.47282000  0.52715000  1
  O  O3116  1  0.47282000  0.97282000  0.02715000  1
  O  O3117  1  0.97282000  0.47282000  0.02715000  1
  O  O3118  1  0.97282000  0.97282000  0.52715000  1
  O  O3119  1  0.97282000  0.27718000  0.72285000  1
  O  O3120  1  0.47282000  0.27718000  0.22285000  1
  O  O3121  1  0.27718000  0.77718000  0.02715000  1
  O  O3122  1  0.27718000  0.27718000  0.52715000  1
  O  O3123  1  0.77718000  0.97282000  0.22285000  1
  O  O3124  1  0.77718000  0.47282000  0.72285000  1
  O  O3125  1  0.27718000  0.47282000  0.22285000  1
  O  O3126  1  0.52715000  0.47282000  0.47282000  1
  O  O3127  1  0.52715000  0.97282000  0.97282000  1
  O  O3128  1  0.02715000  0.47282000  0.97282000  1
  O  O3129  1  0.02715000  0.97282000  0.47282000  1
  O  O3130  1  0.72285000  0.97282000  0.27718000  1
  O  O3131  1  0.72285000  0.47282000  0.77718000  1
  O  O3132  1  0.22285000  0.47282000  0.27718000  1
  O  O3133  1  0.02715000  0.27718000  0.77718000  1
  O  O3134  1  0.52715000  0.27718000  0.27718000  1
  O  O3135  1  0.22285000  0.77718000  0.97282000  1
  O  O3136  1  0.22285000  0.27718000  0.47282000  1
  O  O3137  1  0.27715000  0.72282000  0.02718000  1
  O  O3138  1  0.27715000  0.22282000  0.52718000  1
  O  O3139  1  0.47285000  0.52718000  0.52718000  1
  O  O3140  1  0.47285000  0.02718000  0.02718000  1
  O  O3141  1  0.97285000  0.52718000  0.02718000  1
  O  O3142  1  0.97285000  0.02718000  0.52718000  1
  O  O3143  1  0.77715000  0.02718000  0.22282000  1
  O  O3144  1  0.77715000  0.52718000  0.72282000  1
  O  O3145  1  0.27715000  0.52718000  0.22282000  1
  O  O3146  1  0.97285000  0.22282000  0.72282000  1
  O  O3147  1  0.47285000  0.22282000  0.22282000  1
  O  O3148  1  0.22282000  0.72282000  0.97285000  1
  O  O3149  1  0.22282000  0.22282000  0.47285000  1
  O  O3150  1  0.02718000  0.22282000  0.77715000  1
  O  O3151  1  0.52718000  0.22282000  0.27715000  1
  O  O3152  1  0.52718000  0.52718000  0.47285000  1
  O  O3153  1  0.52718000  0.02718000  0.97285000  1
  O  O3154  1  0.02718000  0.52718000  0.97285000  1
  O  O3155  1  0.02718000  0.02718000  0.47285000  1
  O  O3156  1  0.72282000  0.02718000  0.27715000  1
  O  O3157  1  0.72282000  0.52718000  0.77715000  1
  O  O3158  1  0.22282000  0.52718000  0.27715000  1
  O  O3159  1  0.22282000  0.77715000  0.02718000  1
  O  O3160  1  0.22282000  0.27715000  0.52718000  1
  O  O3161  1  0.72282000  0.97285000  0.22282000  1
  O  O3162  1  0.72282000  0.47285000  0.72282000  1
  O  O3163  1  0.22282000  0.47285000  0.22282000  1
  O  O3164  1  0.02718000  0.27715000  0.72282000  1
  O  O3165  1  0.52718000  0.27715000  0.22282000  1
  O  O3166  1  0.52718000  0.47285000  0.52718000  1
  O  O3167  1  0.52718000  0.97285000  0.02718000  1
  O  O3168  1  0.02718000  0.47285000  0.02718000  1
  O  O3169  1  0.02718000  0.97285000  0.52718000  1
  O  O3170  1  0.72282000  0.27715000  0.02718000  1
  O  O3171  1  0.72282000  0.77715000  0.52718000  1
  O  O3172  1  0.22282000  0.97285000  0.72282000  1
  O  O3173  1  0.02718000  0.77715000  0.22282000  1
  O  O3174  1  0.52718000  0.77715000  0.72282000  1
  O  O3175  1  0.02718000  0.72282000  0.27715000  1
  O  O3176  1  0.52718000  0.72282000  0.77715000  1
  O  O3177  1  0.72282000  0.22282000  0.97285000  1
  O  O3178  1  0.72282000  0.72282000  0.47285000  1
  O  O3179  1  0.22282000  0.02718000  0.77715000  1
  O  O3180  1  0.27715000  0.02718000  0.72282000  1
  O  O3181  1  0.97285000  0.72282000  0.22282000  1
  O  O3182  1  0.47285000  0.72282000  0.72282000  1
  O  O3183  1  0.77715000  0.22282000  0.02718000  1
  O  O3184  1  0.77715000  0.72282000  0.52718000  1
  O  O3185  1  0.72285000  0.27718000  0.97282000  1
  O  O3186  1  0.72285000  0.77718000  0.47282000  1
  O  O3187  1  0.22285000  0.97282000  0.77718000  1
  O  O3188  1  0.02715000  0.77718000  0.27718000  1
  O  O3189  1  0.52715000  0.77718000  0.77718000  1
  O  O3190  1  0.77718000  0.27718000  0.02715000  1
  O  O3191  1  0.77718000  0.77718000  0.52715000  1
  O  O3192  1  0.97282000  0.77718000  0.22285000  1
  O  O3193  1  0.47282000  0.77718000  0.72285000  1
  O  O3194  1  0.27718000  0.97282000  0.72285000  1
  O  O3195  1  0.77718000  0.22285000  0.97282000  1
  O  O3196  1  0.77718000  0.72285000  0.47282000  1
  O  O3197  1  0.27718000  0.02715000  0.77718000  1
  O  O3198  1  0.97282000  0.72285000  0.27718000  1
  O  O3199  1  0.47282000  0.72285000  0.77718000  1
