# generated using pymatgen
data_Zr3PH26C45O16
_symmetry_space_group_name_H-M   'P 1'
_cell_length_a   38.16220000
_cell_length_b   38.16220000
_cell_length_c   45.58590000
_cell_angle_alpha   90.00000000
_cell_angle_beta   90.00000000
_cell_angle_gamma   120.00000000
_symmetry_Int_Tables_number   1
_chemical_formula_structural   Zr3PH26C45O16
_chemical_formula_sum   'Zr54 P18 H468 C810 O288'
_cell_volume   57494.72110909
_cell_formula_units_Z   18
loop_
 _symmetry_equiv_pos_site_id
 _symmetry_equiv_pos_as_xyz
  1  'x, y, z'
loop_
 _atom_site_type_symbol
 _atom_site_label
 _atom_site_symmetry_multiplicity
 _atom_site_fract_x
 _atom_site_fract_y
 _atom_site_fract_z
 _atom_site_occupancy
  Zr  Zr0  1  0.97311000  0.02668000  0.96132000  1
  Zr  Zr1  1  0.05315000  0.51889000  0.96101000  1
  Zr  Zr2  1  0.56880000  0.01212000  0.00019000  1
  Zr  Zr3  1  0.48130000  0.94731000  0.96129000  1
  Zr  Zr4  1  0.93553000  0.93553000  0.00000000  1
  Zr  Zr5  1  0.02668000  0.05357000  0.62798667  1
  Zr  Zr6  1  0.51889000  0.46574000  0.62767667  1
  Zr  Zr7  1  0.01212000  0.44332000  0.66685667  1
  Zr  Zr8  1  0.94731000  0.46601000  0.62795667  1
  Zr  Zr9  1  0.93553000  0.00000000  0.66666667  1
  Zr  Zr10  1  0.05357000  0.02689000  0.29465333  1
  Zr  Zr11  1  0.46574000  0.94685000  0.29434333  1
  Zr  Zr12  1  0.44332000  0.43120000  0.33352333  1
  Zr  Zr13  1  0.46601000  0.51870000  0.29462333  1
  Zr  Zr14  1  0.00000000  0.06447000  0.33333333  1
  Zr  Zr15  1  0.02689000  0.97332000  0.96132000  1
  Zr  Zr16  1  0.94685000  0.48111000  0.96101000  1
  Zr  Zr17  1  0.43120000  0.98788000  0.00019000  1
  Zr  Zr18  1  0.51870000  0.05269000  0.96129000  1
  Zr  Zr19  1  0.06447000  0.06447000  0.00000000  1
  Zr  Zr20  1  0.97332000  0.94643000  0.62798667  1
  Zr  Zr21  1  0.48111000  0.53426000  0.62767667  1
  Zr  Zr22  1  0.98788000  0.55668000  0.66685667  1
  Zr  Zr23  1  0.05269000  0.53399000  0.62795667  1
  Zr  Zr24  1  0.06447000  1.00000000  0.66666667  1
  Zr  Zr25  1  0.94643000  0.97311000  0.29465333  1
  Zr  Zr26  1  0.53426000  0.05315000  0.29434333  1
  Zr  Zr27  1  0.55668000  0.56880000  0.33352333  1
  Zr  Zr28  1  0.53399000  0.48130000  0.29462333  1
  Zr  Zr29  1  0.00000000  0.93553000  0.33333333  1
  Zr  Zr30  1  0.05357000  0.02668000  0.37201333  1
  Zr  Zr31  1  0.46574000  0.51889000  0.37232333  1
  Zr  Zr32  1  0.44332000  0.01212000  0.33314333  1
  Zr  Zr33  1  0.46601000  0.94731000  0.37204333  1
  Zr  Zr34  1  0.02668000  0.97311000  0.03868000  1
  Zr  Zr35  1  0.51889000  0.05315000  0.03899000  1
  Zr  Zr36  1  0.01212000  0.56880000  0.99981000  1
  Zr  Zr37  1  0.94731000  0.48130000  0.03871000  1
  Zr  Zr38  1  0.97311000  0.94643000  0.70534667  1
  Zr  Zr39  1  0.05315000  0.53426000  0.70565667  1
  Zr  Zr40  1  0.56880000  0.55668000  0.66647667  1
  Zr  Zr41  1  0.48130000  0.53399000  0.70537667  1
  Zr  Zr42  1  0.94643000  0.97332000  0.37201333  1
  Zr  Zr43  1  0.53426000  0.48111000  0.37232333  1
  Zr  Zr44  1  0.55668000  0.98788000  0.33314333  1
  Zr  Zr45  1  0.53399000  0.05269000  0.37204333  1
  Zr  Zr46  1  0.97332000  0.02689000  0.03868000  1
  Zr  Zr47  1  0.48111000  0.94685000  0.03899000  1
  Zr  Zr48  1  0.98788000  0.43120000  0.99981000  1
  Zr  Zr49  1  0.05269000  0.51870000  0.03871000  1
  Zr  Zr50  1  0.02689000  0.05357000  0.70534667  1
  Zr  Zr51  1  0.94685000  0.46574000  0.70565667  1
  Zr  Zr52  1  0.43120000  0.44332000  0.66647667  1
  Zr  Zr53  1  0.51870000  0.46601000  0.70537667  1
  P  P54  1  0.11573000  0.38833000  0.83802000  1
  P  P55  1  0.77110000  0.88555000  0.83333000  1
  P  P56  1  0.38833000  0.27260000  0.50468667  1
  P  P57  1  0.88555000  0.11445000  0.49999667  1
  P  P58  1  0.27260000  0.88427000  0.17135333  1
  P  P59  1  0.11445000  0.22890000  0.16666333  1
  P  P60  1  0.88427000  0.61167000  0.83802000  1
  P  P61  1  0.22890000  0.11445000  0.83333000  1
  P  P62  1  0.61167000  0.72740000  0.50468667  1
  P  P63  1  0.11445000  0.88555000  0.49999667  1
  P  P64  1  0.72740000  0.11573000  0.17135333  1
  P  P65  1  0.88555000  0.77110000  0.16666333  1
  P  P66  1  0.27260000  0.38833000  0.49531333  1
  P  P67  1  0.38833000  0.11573000  0.16198000  1
  P  P68  1  0.11573000  0.72740000  0.82864667  1
  P  P69  1  0.72740000  0.61167000  0.49531333  1
  P  P70  1  0.61167000  0.88427000  0.16198000  1
  P  P71  1  0.88427000  0.27260000  0.82864667  1
  H  H72  1  0.35790000  0.50560000  0.74530000  1
  H  H73  1  0.29730000  0.48200000  0.77040000  1
  H  H74  1  0.26860000  0.36750000  0.75270000  1
  H  H75  1  0.32910000  0.39110000  0.72760000  1
  H  H76  1  0.22070000  0.44230000  0.75220000  1
  H  H77  1  0.08370000  0.28970000  0.92730000  1
  H  H78  1  0.14970000  0.23560000  0.91480000  1
  H  H79  1  0.12590000  0.17440000  0.93900000  1
  H  H80  1  0.01190000  0.15200000  0.92950000  1
  H  H81  1  0.03570000  0.21330000  0.90530000  1
  H  H82  1  0.09770000  0.36720000  0.75390000  1
  H  H83  1  0.06130000  0.39160000  0.72890000  1
  H  H84  1  0.15090000  0.50550000  0.74310000  1
  H  H85  1  0.18730000  0.48110000  0.76810000  1
  H  H86  1  0.04000000  0.31670000  0.92210000  1
  H  H87  1  0.01630000  0.35560000  0.94430000  1
  H  H88  1  0.12340000  0.45570000  0.92990000  1
  H  H89  1  0.14710000  0.41690000  0.90760000  1
  H  H90  1  0.82490000  0.87490000  0.94100000  1
  H  H91  1  0.76310000  0.85140000  0.91770000  1
  H  H92  1  0.78720000  0.96590000  0.90700000  1
  H  H93  1  0.84900000  0.98940000  0.93030000  1
  H  H94  1  0.71080000  0.92230000  0.92480000  1
  H  H95  1  0.58540000  0.85910000  0.90220000  1
  H  H96  1  0.54580000  0.88190000  0.92440000  1
  H  H97  1  0.64570000  0.98790000  0.94250000  1
  H  H98  1  0.68530000  0.96510000  0.92020000  1
  H  H99  1  0.24810000  0.34380000  0.80890000  1
  H  H100  1  0.27300000  0.38710000  0.82360000  1
  H  H101  1  0.22680000  0.37210000  0.85890000  1
  H  H102  1  0.22270000  0.32920000  0.85470000  1
  H  H103  1  0.13390000  0.28230000  0.80910000  1
  H  H104  1  0.17660000  0.28550000  0.81180000  1
  H  H105  1  0.11830000  0.23580000  0.84490000  1
  H  H106  1  0.16310000  0.25750000  0.85720000  1
  H  H107  1  0.60400000  0.78220000  0.85260000  1
  H  H108  1  0.64230000  0.77780000  0.85850000  1
  H  H109  1  0.61590000  0.88300000  0.84530000  1
  H  H110  1  0.59450000  0.83940000  0.85930000  1
  H  H111  1  0.50560000  0.14770000  0.41196667  1
  H  H112  1  0.48200000  0.18470000  0.43706667  1
  H  H113  1  0.36750000  0.09890000  0.41936667  1
  H  H114  1  0.39110000  0.06200000  0.39426667  1
  H  H115  1  0.44230000  0.22160000  0.41886667  1
  H  H116  1  0.28970000  0.20600000  0.59396667  1
  H  H117  1  0.23560000  0.08590000  0.58146667  1
  H  H118  1  0.17440000  0.04850000  0.60566667  1
  H  H119  1  0.15200000  0.14010000  0.59616667  1
  H  H120  1  0.21330000  0.17760000  0.57196667  1
  H  H121  1  0.36720000  0.26950000  0.42056667  1
  H  H122  1  0.39160000  0.33030000  0.39556667  1
  H  H123  1  0.50550000  0.35460000  0.40976667  1
  H  H124  1  0.48110000  0.29380000  0.43476667  1
  H  H125  1  0.31670000  0.27670000  0.58876667  1
  H  H126  1  0.35560000  0.33930000  0.61096667  1
  H  H127  1  0.45570000  0.33230000  0.59656667  1
  H  H128  1  0.41690000  0.26980000  0.57426667  1
  H  H129  1  0.87490000  0.05000000  0.60766667  1
  H  H130  1  0.85140000  0.08830000  0.58436667  1
  H  H131  1  0.96590000  0.17870000  0.57366667  1
  H  H132  1  0.98940000  0.14040000  0.59696667  1
  H  H133  1  0.92230000  0.21150000  0.59146667  1
  H  H134  1  0.85910000  0.27370000  0.56886667  1
  H  H135  1  0.88190000  0.33610000  0.59106667  1
  H  H136  1  0.98790000  0.34220000  0.60916667  1
  H  H137  1  0.96510000  0.27980000  0.58686667  1
  H  H138  1  0.34380000  0.09570000  0.47556667  1
  H  H139  1  0.38710000  0.11410000  0.49026667  1
  H  H140  1  0.37210000  0.14530000  0.52556667  1
  H  H141  1  0.32920000  0.10650000  0.52136667  1
  H  H142  1  0.28230000  0.14840000  0.47576667  1
  H  H143  1  0.28550000  0.10890000  0.47846667  1
  H  H144  1  0.23580000  0.11750000  0.51156667  1
  H  H145  1  0.25750000  0.09440000  0.52386667  1
  H  H146  1  0.78220000  0.17820000  0.51926667  1
  H  H147  1  0.77780000  0.13550000  0.52516667  1
  H  H148  1  0.88300000  0.26710000  0.51196667  1
  H  H149  1  0.83940000  0.24490000  0.52596667  1
  H  H150  1  0.14770000  0.64210000  0.07863333  1
  H  H151  1  0.18470000  0.70270000  0.10373333  1
  H  H152  1  0.09890000  0.73140000  0.08603333  1
  H  H153  1  0.06200000  0.67090000  0.06093333  1
  H  H154  1  0.22160000  0.77930000  0.08553333  1
  H  H155  1  0.20600000  0.91630000  0.26063333  1
  H  H156  1  0.08590000  0.85030000  0.24813333  1
  H  H157  1  0.04850000  0.87410000  0.27233333  1
  H  H158  1  0.14010000  0.98810000  0.26283333  1
  H  H159  1  0.17760000  0.96430000  0.23863333  1
  H  H160  1  0.26950000  0.90230000  0.08723333  1
  H  H161  1  0.33030000  0.93870000  0.06223333  1
  H  H162  1  0.35460000  0.84910000  0.07643333  1
  H  H163  1  0.29380000  0.81270000  0.10143333  1
  H  H164  1  0.27670000  0.96000000  0.25543333  1
  H  H165  1  0.33930000  0.98370000  0.27763333  1
  H  H166  1  0.33230000  0.87660000  0.26323333  1
  H  H167  1  0.26980000  0.85290000  0.24093333  1
  H  H168  1  0.05000000  0.17510000  0.27433333  1
  H  H169  1  0.08830000  0.23690000  0.25103333  1
  H  H170  1  0.17870000  0.21280000  0.24033333  1
  H  H171  1  0.14040000  0.15100000  0.26363333  1
  H  H172  1  0.21150000  0.28920000  0.25813333  1
  H  H173  1  0.27370000  0.41460000  0.23553333  1
  H  H174  1  0.33610000  0.45420000  0.25773333  1
  H  H175  1  0.34220000  0.35430000  0.27583333  1
  H  H176  1  0.27980000  0.31470000  0.25353333  1
  H  H177  1  0.09570000  0.75190000  0.14223333  1
  H  H178  1  0.11410000  0.72700000  0.15693333  1
  H  H179  1  0.14530000  0.77320000  0.19223333  1
  H  H180  1  0.10650000  0.77730000  0.18803333  1
  H  H181  1  0.14840000  0.86610000  0.14243333  1
  H  H182  1  0.10890000  0.82340000  0.14513333  1
  H  H183  1  0.11750000  0.88170000  0.17823333  1
  H  H184  1  0.09440000  0.83690000  0.19053333  1
  H  H185  1  0.17820000  0.39600000  0.18593333  1
  H  H186  1  0.13550000  0.35770000  0.19183333  1
  H  H187  1  0.26710000  0.38410000  0.17863333  1
  H  H188  1  0.24490000  0.40550000  0.19263333  1
  H  H189  1  0.64210000  0.49440000  0.74530000  1
  H  H190  1  0.70270000  0.51800000  0.77040000  1
  H  H191  1  0.73140000  0.63250000  0.75270000  1
  H  H192  1  0.67090000  0.60890000  0.72760000  1
  H  H193  1  0.77930000  0.55770000  0.75220000  1
  H  H194  1  0.91630000  0.71030000  0.92730000  1
  H  H195  1  0.85030000  0.76440000  0.91480000  1
  H  H196  1  0.87410000  0.82560000  0.93900000  1
  H  H197  1  0.98810000  0.84800000  0.92950000  1
  H  H198  1  0.96430000  0.78670000  0.90530000  1
  H  H199  1  0.90230000  0.63280000  0.75390000  1
  H  H200  1  0.93870000  0.60840000  0.72890000  1
  H  H201  1  0.84910000  0.49450000  0.74310000  1
  H  H202  1  0.81270000  0.51890000  0.76810000  1
  H  H203  1  0.96000000  0.68330000  0.92210000  1
  H  H204  1  0.98370000  0.64440000  0.94430000  1
  H  H205  1  0.87660000  0.54430000  0.92990000  1
  H  H206  1  0.85290000  0.58310000  0.90760000  1
  H  H207  1  0.17510000  0.12510000  0.94100000  1
  H  H208  1  0.23690000  0.14860000  0.91770000  1
  H  H209  1  0.21280000  0.03410000  0.90700000  1
  H  H210  1  0.15100000  0.01060000  0.93030000  1
  H  H211  1  0.28920000  0.07770000  0.92480000  1
  H  H212  1  0.41460000  0.14090000  0.90220000  1
  H  H213  1  0.45420000  0.11810000  0.92440000  1
  H  H214  1  0.35430000  0.01210000  0.94250000  1
  H  H215  1  0.31470000  0.03490000  0.92020000  1
  H  H216  1  0.75190000  0.65620000  0.80890000  1
  H  H217  1  0.72700000  0.61290000  0.82360000  1
  H  H218  1  0.77320000  0.62790000  0.85890000  1
  H  H219  1  0.77730000  0.67080000  0.85470000  1
  H  H220  1  0.86610000  0.71770000  0.80910000  1
  H  H221  1  0.82340000  0.71450000  0.81180000  1
  H  H222  1  0.88170000  0.76420000  0.84490000  1
  H  H223  1  0.83690000  0.74250000  0.85720000  1
  H  H224  1  0.39600000  0.21780000  0.85260000  1
  H  H225  1  0.35770000  0.22220000  0.85850000  1
  H  H226  1  0.38410000  0.11700000  0.84530000  1
  H  H227  1  0.40550000  0.16060000  0.85930000  1
  H  H228  1  0.49440000  0.85230000  0.41196667  1
  H  H229  1  0.51800000  0.81530000  0.43706667  1
  H  H230  1  0.63250000  0.90110000  0.41936667  1
  H  H231  1  0.60890000  0.93800000  0.39426667  1
  H  H232  1  0.55770000  0.77840000  0.41886667  1
  H  H233  1  0.71030000  0.79400000  0.59396667  1
  H  H234  1  0.76440000  0.91410000  0.58146667  1
  H  H235  1  0.82560000  0.95150000  0.60566667  1
  H  H236  1  0.84800000  0.85990000  0.59616667  1
  H  H237  1  0.78670000  0.82240000  0.57196667  1
  H  H238  1  0.63280000  0.73050000  0.42056667  1
  H  H239  1  0.60840000  0.66970000  0.39556667  1
  H  H240  1  0.49450000  0.64540000  0.40976667  1
  H  H241  1  0.51890000  0.70620000  0.43476667  1
  H  H242  1  0.68330000  0.72330000  0.58876667  1
  H  H243  1  0.64440000  0.66070000  0.61096667  1
  H  H244  1  0.54430000  0.66770000  0.59656667  1
  H  H245  1  0.58310000  0.73020000  0.57426667  1
  H  H246  1  0.12510000  0.95000000  0.60766667  1
  H  H247  1  0.14860000  0.91170000  0.58436667  1
  H  H248  1  0.03410000  0.82130000  0.57366667  1
  H  H249  1  0.01060000  0.85960000  0.59696667  1
  H  H250  1  0.07770000  0.78850000  0.59146667  1
  H  H251  1  0.14090000  0.72630000  0.56886667  1
  H  H252  1  0.11810000  0.66390000  0.59106667  1
  H  H253  1  0.01210000  0.65780000  0.60916667  1
  H  H254  1  0.03490000  0.72020000  0.58686667  1
  H  H255  1  0.65620000  0.90430000  0.47556667  1
  H  H256  1  0.61290000  0.88590000  0.49026667  1
  H  H257  1  0.62790000  0.85470000  0.52556667  1
  H  H258  1  0.67080000  0.89350000  0.52136667  1
  H  H259  1  0.71770000  0.85160000  0.47576667  1
  H  H260  1  0.71450000  0.89110000  0.47846667  1
  H  H261  1  0.76420000  0.88250000  0.51156667  1
  H  H262  1  0.74250000  0.90560000  0.52386667  1
  H  H263  1  0.21780000  0.82180000  0.51926667  1
  H  H264  1  0.22220000  0.86450000  0.52516667  1
  H  H265  1  0.11700000  0.73290000  0.51196667  1
  H  H266  1  0.16060000  0.75510000  0.52596667  1
  H  H267  1  0.85230000  0.35790000  0.07863333  1
  H  H268  1  0.81530000  0.29730000  0.10373333  1
  H  H269  1  0.90110000  0.26860000  0.08603333  1
  H  H270  1  0.93800000  0.32910000  0.06093333  1
  H  H271  1  0.77840000  0.22070000  0.08553333  1
  H  H272  1  0.79400000  0.08370000  0.26063333  1
  H  H273  1  0.91410000  0.14970000  0.24813333  1
  H  H274  1  0.95150000  0.12590000  0.27233333  1
  H  H275  1  0.85990000  0.01190000  0.26283333  1
  H  H276  1  0.82240000  0.03570000  0.23863333  1
  H  H277  1  0.73050000  0.09770000  0.08723333  1
  H  H278  1  0.66970000  0.06130000  0.06223333  1
  H  H279  1  0.64540000  0.15090000  0.07643333  1
  H  H280  1  0.70620000  0.18730000  0.10143333  1
  H  H281  1  0.72330000  0.04000000  0.25543333  1
  H  H282  1  0.66070000  0.01630000  0.27763333  1
  H  H283  1  0.66770000  0.12340000  0.26323333  1
  H  H284  1  0.73020000  0.14710000  0.24093333  1
  H  H285  1  0.95000000  0.82490000  0.27433333  1
  H  H286  1  0.91170000  0.76310000  0.25103333  1
  H  H287  1  0.82130000  0.78720000  0.24033333  1
  H  H288  1  0.85960000  0.84900000  0.26363333  1
  H  H289  1  0.78850000  0.71080000  0.25813333  1
  H  H290  1  0.72630000  0.58540000  0.23553333  1
  H  H291  1  0.66390000  0.54580000  0.25773333  1
  H  H292  1  0.65780000  0.64570000  0.27583333  1
  H  H293  1  0.72020000  0.68530000  0.25353333  1
  H  H294  1  0.90430000  0.24810000  0.14223333  1
  H  H295  1  0.88590000  0.27300000  0.15693333  1
  H  H296  1  0.85470000  0.22680000  0.19223333  1
  H  H297  1  0.89350000  0.22270000  0.18803333  1
  H  H298  1  0.85160000  0.13390000  0.14243333  1
  H  H299  1  0.89110000  0.17660000  0.14513333  1
  H  H300  1  0.88250000  0.11830000  0.17823333  1
  H  H301  1  0.90560000  0.16310000  0.19053333  1
  H  H302  1  0.82180000  0.60400000  0.18593333  1
  H  H303  1  0.86450000  0.64230000  0.19183333  1
  H  H304  1  0.73290000  0.61590000  0.17863333  1
  H  H305  1  0.75510000  0.59450000  0.19263333  1
  H  H306  1  0.14770000  0.50560000  0.58803333  1
  H  H307  1  0.18470000  0.48200000  0.56293333  1
  H  H308  1  0.09890000  0.36750000  0.58063333  1
  H  H309  1  0.06200000  0.39110000  0.60573333  1
  H  H310  1  0.22160000  0.44230000  0.58113333  1
  H  H311  1  0.20600000  0.28970000  0.40603333  1
  H  H312  1  0.08590000  0.23560000  0.41853333  1
  H  H313  1  0.04850000  0.17440000  0.39433333  1
  H  H314  1  0.14010000  0.15200000  0.40383333  1
  H  H315  1  0.17760000  0.21330000  0.42803333  1
  H  H316  1  0.26950000  0.36720000  0.57943333  1
  H  H317  1  0.33030000  0.39160000  0.60443333  1
  H  H318  1  0.35460000  0.50550000  0.59023333  1
  H  H319  1  0.29380000  0.48110000  0.56523333  1
  H  H320  1  0.27670000  0.31670000  0.41123333  1
  H  H321  1  0.33930000  0.35560000  0.38903333  1
  H  H322  1  0.33230000  0.45570000  0.40343333  1
  H  H323  1  0.26980000  0.41690000  0.42573333  1
  H  H324  1  0.05000000  0.87490000  0.39233333  1
  H  H325  1  0.08830000  0.85140000  0.41563333  1
  H  H326  1  0.17870000  0.96590000  0.42633333  1
  H  H327  1  0.14040000  0.98940000  0.40303333  1
  H  H328  1  0.21150000  0.92230000  0.40853333  1
  H  H329  1  0.27370000  0.85910000  0.43113333  1
  H  H330  1  0.33610000  0.88190000  0.40893333  1
  H  H331  1  0.34220000  0.98790000  0.39083333  1
  H  H332  1  0.27980000  0.96510000  0.41313333  1
  H  H333  1  0.09570000  0.34380000  0.52443333  1
  H  H334  1  0.11410000  0.38710000  0.50973333  1
  H  H335  1  0.14530000  0.37210000  0.47443333  1
  H  H336  1  0.10650000  0.32920000  0.47863333  1
  H  H337  1  0.14840000  0.28230000  0.52423333  1
  H  H338  1  0.10890000  0.28550000  0.52153333  1
  H  H339  1  0.11750000  0.23580000  0.48843333  1
  H  H340  1  0.09440000  0.25750000  0.47613333  1
  H  H341  1  0.17820000  0.78220000  0.48073333  1
  H  H342  1  0.13550000  0.77780000  0.47483333  1
  H  H343  1  0.26710000  0.88300000  0.48803333  1
  H  H344  1  0.24490000  0.83940000  0.47403333  1
  H  H345  1  0.50560000  0.35790000  0.25470000  1
  H  H346  1  0.48200000  0.29730000  0.22960000  1
  H  H347  1  0.36750000  0.26860000  0.24730000  1
  H  H348  1  0.39110000  0.32910000  0.27240000  1
  H  H349  1  0.44230000  0.22070000  0.24780000  1
  H  H350  1  0.28970000  0.08370000  0.07270000  1
  H  H351  1  0.23560000  0.14970000  0.08520000  1
  H  H352  1  0.17440000  0.12590000  0.06100000  1
  H  H353  1  0.15200000  0.01190000  0.07050000  1
  H  H354  1  0.21330000  0.03570000  0.09470000  1
  H  H355  1  0.36720000  0.09770000  0.24610000  1
  H  H356  1  0.39160000  0.06130000  0.27110000  1
  H  H357  1  0.50550000  0.15090000  0.25690000  1
  H  H358  1  0.48110000  0.18730000  0.23190000  1
  H  H359  1  0.31670000  0.04000000  0.07790000  1
  H  H360  1  0.35560000  0.01630000  0.05570000  1
  H  H361  1  0.45570000  0.12340000  0.07010000  1
  H  H362  1  0.41690000  0.14710000  0.09240000  1
  H  H363  1  0.87490000  0.82490000  0.05900000  1
  H  H364  1  0.85140000  0.76310000  0.08230000  1
  H  H365  1  0.96590000  0.78720000  0.09300000  1
  H  H366  1  0.98940000  0.84900000  0.06970000  1
  H  H367  1  0.92230000  0.71080000  0.07520000  1
  H  H368  1  0.85910000  0.58540000  0.09780000  1
  H  H369  1  0.88190000  0.54580000  0.07560000  1
  H  H370  1  0.98790000  0.64570000  0.05750000  1
  H  H371  1  0.96510000  0.68530000  0.07980000  1
  H  H372  1  0.34380000  0.24810000  0.19110000  1
  H  H373  1  0.38710000  0.27300000  0.17640000  1
  H  H374  1  0.37210000  0.22680000  0.14110000  1
  H  H375  1  0.32920000  0.22270000  0.14530000  1
  H  H376  1  0.28230000  0.13390000  0.19090000  1
  H  H377  1  0.28550000  0.17660000  0.18820000  1
  H  H378  1  0.23580000  0.11830000  0.15510000  1
  H  H379  1  0.25750000  0.16310000  0.14280000  1
  H  H380  1  0.78220000  0.60400000  0.14740000  1
  H  H381  1  0.77780000  0.64230000  0.14150000  1
  H  H382  1  0.88300000  0.61590000  0.15470000  1
  H  H383  1  0.83940000  0.59450000  0.14070000  1
  H  H384  1  0.35790000  0.85230000  0.92136667  1
  H  H385  1  0.29730000  0.81530000  0.89626667  1
  H  H386  1  0.26860000  0.90110000  0.91396667  1
  H  H387  1  0.32910000  0.93800000  0.93906667  1
  H  H388  1  0.22070000  0.77840000  0.91446667  1
  H  H389  1  0.08370000  0.79400000  0.73936667  1
  H  H390  1  0.14970000  0.91410000  0.75186667  1
  H  H391  1  0.12590000  0.95150000  0.72766667  1
  H  H392  1  0.01190000  0.85990000  0.73716667  1
  H  H393  1  0.03570000  0.82240000  0.76136667  1
  H  H394  1  0.09770000  0.73050000  0.91276667  1
  H  H395  1  0.06130000  0.66970000  0.93776667  1
  H  H396  1  0.15090000  0.64540000  0.92356667  1
  H  H397  1  0.18730000  0.70620000  0.89856667  1
  H  H398  1  0.04000000  0.72330000  0.74456667  1
  H  H399  1  0.01630000  0.66070000  0.72236667  1
  H  H400  1  0.12340000  0.66770000  0.73676667  1
  H  H401  1  0.14710000  0.73020000  0.75906667  1
  H  H402  1  0.82490000  0.95000000  0.72566667  1
  H  H403  1  0.76310000  0.91170000  0.74896667  1
  H  H404  1  0.78720000  0.82130000  0.75966667  1
  H  H405  1  0.84900000  0.85960000  0.73636667  1
  H  H406  1  0.71080000  0.78850000  0.74186667  1
  H  H407  1  0.58540000  0.72630000  0.76446667  1
  H  H408  1  0.54580000  0.66390000  0.74226667  1
  H  H409  1  0.64570000  0.65780000  0.72416667  1
  H  H410  1  0.68530000  0.72020000  0.74646667  1
  H  H411  1  0.24810000  0.90430000  0.85776667  1
  H  H412  1  0.27300000  0.88590000  0.84306667  1
  H  H413  1  0.22680000  0.85470000  0.80776667  1
  H  H414  1  0.22270000  0.89350000  0.81196667  1
  H  H415  1  0.13390000  0.85160000  0.85756667  1
  H  H416  1  0.17660000  0.89110000  0.85486667  1
  H  H417  1  0.11830000  0.88250000  0.82176667  1
  H  H418  1  0.16310000  0.90560000  0.80946667  1
  H  H419  1  0.60400000  0.82180000  0.81406667  1
  H  H420  1  0.64230000  0.86450000  0.80816667  1
  H  H421  1  0.61590000  0.73290000  0.82136667  1
  H  H422  1  0.59450000  0.75510000  0.80736667  1
  H  H423  1  0.85230000  0.49440000  0.58803333  1
  H  H424  1  0.81530000  0.51800000  0.56293333  1
  H  H425  1  0.90110000  0.63250000  0.58063333  1
  H  H426  1  0.93800000  0.60890000  0.60573333  1
  H  H427  1  0.77840000  0.55770000  0.58113333  1
  H  H428  1  0.79400000  0.71030000  0.40603333  1
  H  H429  1  0.91410000  0.76440000  0.41853333  1
  H  H430  1  0.95150000  0.82560000  0.39433333  1
  H  H431  1  0.85990000  0.84800000  0.40383333  1
  H  H432  1  0.82240000  0.78670000  0.42803333  1
  H  H433  1  0.73050000  0.63280000  0.57943333  1
  H  H434  1  0.66970000  0.60840000  0.60443333  1
  H  H435  1  0.64540000  0.49450000  0.59023333  1
  H  H436  1  0.70620000  0.51890000  0.56523333  1
  H  H437  1  0.72330000  0.68330000  0.41123333  1
  H  H438  1  0.66070000  0.64440000  0.38903333  1
  H  H439  1  0.66770000  0.54430000  0.40343333  1
  H  H440  1  0.73020000  0.58310000  0.42573333  1
  H  H441  1  0.95000000  0.12510000  0.39233333  1
  H  H442  1  0.91170000  0.14860000  0.41563333  1
  H  H443  1  0.82130000  0.03410000  0.42633333  1
  H  H444  1  0.85960000  0.01060000  0.40303333  1
  H  H445  1  0.78850000  0.07770000  0.40853333  1
  H  H446  1  0.72630000  0.14090000  0.43113333  1
  H  H447  1  0.66390000  0.11810000  0.40893333  1
  H  H448  1  0.65780000  0.01210000  0.39083333  1
  H  H449  1  0.72020000  0.03490000  0.41313333  1
  H  H450  1  0.90430000  0.65620000  0.52443333  1
  H  H451  1  0.88590000  0.61290000  0.50973333  1
  H  H452  1  0.85470000  0.62790000  0.47443333  1
  H  H453  1  0.89350000  0.67080000  0.47863333  1
  H  H454  1  0.85160000  0.71770000  0.52423333  1
  H  H455  1  0.89110000  0.71450000  0.52153333  1
  H  H456  1  0.88250000  0.76420000  0.48843333  1
  H  H457  1  0.90560000  0.74250000  0.47613333  1
  H  H458  1  0.82180000  0.21780000  0.48073333  1
  H  H459  1  0.86450000  0.22220000  0.47483333  1
  H  H460  1  0.73290000  0.11700000  0.48803333  1
  H  H461  1  0.75510000  0.16060000  0.47403333  1
  H  H462  1  0.49440000  0.64210000  0.25470000  1
  H  H463  1  0.51800000  0.70270000  0.22960000  1
  H  H464  1  0.63250000  0.73140000  0.24730000  1
  H  H465  1  0.60890000  0.67090000  0.27240000  1
  H  H466  1  0.55770000  0.77930000  0.24780000  1
  H  H467  1  0.71030000  0.91630000  0.07270000  1
  H  H468  1  0.76440000  0.85030000  0.08520000  1
  H  H469  1  0.82560000  0.87410000  0.06100000  1
  H  H470  1  0.84800000  0.98810000  0.07050000  1
  H  H471  1  0.78670000  0.96430000  0.09470000  1
  H  H472  1  0.63280000  0.90230000  0.24610000  1
  H  H473  1  0.60840000  0.93870000  0.27110000  1
  H  H474  1  0.49450000  0.84910000  0.25690000  1
  H  H475  1  0.51890000  0.81270000  0.23190000  1
  H  H476  1  0.68330000  0.96000000  0.07790000  1
  H  H477  1  0.64440000  0.98370000  0.05570000  1
  H  H478  1  0.54430000  0.87660000  0.07010000  1
  H  H479  1  0.58310000  0.85290000  0.09240000  1
  H  H480  1  0.12510000  0.17510000  0.05900000  1
  H  H481  1  0.14860000  0.23690000  0.08230000  1
  H  H482  1  0.03410000  0.21280000  0.09300000  1
  H  H483  1  0.01060000  0.15100000  0.06970000  1
  H  H484  1  0.07770000  0.28920000  0.07520000  1
  H  H485  1  0.14090000  0.41460000  0.09780000  1
  H  H486  1  0.11810000  0.45420000  0.07560000  1
  H  H487  1  0.01210000  0.35430000  0.05750000  1
  H  H488  1  0.03490000  0.31470000  0.07980000  1
  H  H489  1  0.65620000  0.75190000  0.19110000  1
  H  H490  1  0.61290000  0.72700000  0.17640000  1
  H  H491  1  0.62790000  0.77320000  0.14110000  1
  H  H492  1  0.67080000  0.77730000  0.14530000  1
  H  H493  1  0.71770000  0.86610000  0.19090000  1
  H  H494  1  0.71450000  0.82340000  0.18820000  1
  H  H495  1  0.76420000  0.88170000  0.15510000  1
  H  H496  1  0.74250000  0.83690000  0.14280000  1
  H  H497  1  0.21780000  0.39600000  0.14740000  1
  H  H498  1  0.22220000  0.35770000  0.14150000  1
  H  H499  1  0.11700000  0.38410000  0.15470000  1
  H  H500  1  0.16060000  0.40550000  0.14070000  1
  H  H501  1  0.64210000  0.14770000  0.92136667  1
  H  H502  1  0.70270000  0.18470000  0.89626667  1
  H  H503  1  0.73140000  0.09890000  0.91396667  1
  H  H504  1  0.67090000  0.06200000  0.93906667  1
  H  H505  1  0.77930000  0.22160000  0.91446667  1
  H  H506  1  0.91630000  0.20600000  0.73936667  1
  H  H507  1  0.85030000  0.08590000  0.75186667  1
  H  H508  1  0.87410000  0.04850000  0.72766667  1
  H  H509  1  0.98810000  0.14010000  0.73716667  1
  H  H510  1  0.96430000  0.17760000  0.76136667  1
  H  H511  1  0.90230000  0.26950000  0.91276667  1
  H  H512  1  0.93870000  0.33030000  0.93776667  1
  H  H513  1  0.84910000  0.35460000  0.92356667  1
  H  H514  1  0.81270000  0.29380000  0.89856667  1
  H  H515  1  0.96000000  0.27670000  0.74456667  1
  H  H516  1  0.98370000  0.33930000  0.72236667  1
  H  H517  1  0.87660000  0.33230000  0.73676667  1
  H  H518  1  0.85290000  0.26980000  0.75906667  1
  H  H519  1  0.17510000  0.05000000  0.72566667  1
  H  H520  1  0.23690000  0.08830000  0.74896667  1
  H  H521  1  0.21280000  0.17870000  0.75966667  1
  H  H522  1  0.15100000  0.14040000  0.73636667  1
  H  H523  1  0.28920000  0.21150000  0.74186667  1
  H  H524  1  0.41460000  0.27370000  0.76446667  1
  H  H525  1  0.45420000  0.33610000  0.74226667  1
  H  H526  1  0.35430000  0.34220000  0.72416667  1
  H  H527  1  0.31470000  0.27980000  0.74646667  1
  H  H528  1  0.75190000  0.09570000  0.85776667  1
  H  H529  1  0.72700000  0.11410000  0.84306667  1
  H  H530  1  0.77320000  0.14530000  0.80776667  1
  H  H531  1  0.77730000  0.10650000  0.81196667  1
  H  H532  1  0.86610000  0.14840000  0.85756667  1
  H  H533  1  0.82340000  0.10890000  0.85486667  1
  H  H534  1  0.88170000  0.11750000  0.82176667  1
  H  H535  1  0.83690000  0.09440000  0.80946667  1
  H  H536  1  0.39600000  0.17820000  0.81406667  1
  H  H537  1  0.35770000  0.13550000  0.80816667  1
  H  H538  1  0.38410000  0.26710000  0.82136667  1
  H  H539  1  0.40550000  0.24490000  0.80736667  1
  C  C540  1  0.34950000  0.45070000  0.73390000  1
  C  C541  1  0.34000000  0.47790000  0.74680000  1
  C  C542  1  0.30370000  0.46380000  0.76190000  1
  C  C543  1  0.27700000  0.42250000  0.76410000  1
  C  C544  1  0.28650000  0.39520000  0.75130000  1
  C  C545  1  0.32270000  0.40930000  0.73620000  1
  C  C546  1  0.23650000  0.40960000  0.77830000  1
  C  C547  1  0.22240000  0.38030000  0.80010000  1
  C  C548  1  0.18310000  0.36420000  0.81060000  1
  C  C549  1  0.15790000  0.37740000  0.79910000  1
  C  C550  1  0.17200000  0.40660000  0.77720000  1
  C  C551  1  0.21130000  0.42280000  0.76680000  1
  C  C552  1  0.13170000  0.28510000  0.87000000  1
  C  C553  1  0.10890000  0.27240000  0.89550000  1
  C  C554  1  0.09900000  0.29820000  0.91020000  1
  C  C555  1  0.11210000  0.33690000  0.89930000  1
  C  C556  1  0.13500000  0.34960000  0.87380000  1
  C  C557  1  0.14480000  0.32380000  0.85910000  1
  C  C558  1  0.09510000  0.23050000  0.90770000  1
  C  C559  1  0.12210000  0.21890000  0.91780000  1
  C  C560  1  0.10780000  0.18210000  0.93230000  1
  C  C561  1  0.06650000  0.15710000  0.93670000  1
  C  C562  1  0.03950000  0.16880000  0.92660000  1
  C  C563  1  0.05380000  0.20550000  0.91210000  1
  C  C564  1  0.14610000  0.42170000  0.76340000  1
  C  C565  1  0.10830000  0.39480000  0.75170000  1
  C  C566  1  0.08660000  0.40960000  0.73680000  1
  C  C567  1  0.10250000  0.45100000  0.73350000  1
  C  C568  1  0.14030000  0.47780000  0.74530000  1
  C  C569  1  0.16200000  0.46310000  0.76020000  1
  C  C570  1  0.09590000  0.36300000  0.91260000  1
  C  C571  1  0.05670000  0.34460000  0.92360000  1
  C  C572  1  0.04250000  0.36780000  0.93700000  1
  C  C573  1  0.06750000  0.40950000  0.93930000  1
  C  C574  1  0.10670000  0.42790000  0.92830000  1
  C  C575  1  0.12090000  0.40460000  0.91500000  1
  C  C576  1  0.84310000  0.93450000  0.93800000  1
  C  C577  1  0.81740000  0.89320000  0.93420000  1
  C  C578  1  0.78030000  0.87910000  0.92020000  1
  C  C579  1  0.76900000  0.90630000  0.91010000  1
  C  C580  1  0.79480000  0.94770000  0.91380000  1
  C  C581  1  0.83180000  0.96180000  0.92780000  1
  C  C582  1  0.72620000  0.89090000  0.89700000  1
  C  C583  1  0.70250000  0.90600000  0.90820000  1
  C  C584  1  0.66630000  0.89670000  0.89460000  1
  C  C585  1  0.65380000  0.87230000  0.86970000  1
  C  C586  1  0.67750000  0.85720000  0.85850000  1
  C  C587  1  0.71380000  0.86660000  0.87220000  1
  C  C588  1  0.63920000  0.90980000  0.90900000  1
  C  C589  1  0.59750000  0.88490000  0.91020000  1
  C  C590  1  0.57380000  0.89860000  0.92360000  1
  C  C591  1  0.59180000  0.93710000  0.93560000  1
  C  C592  1  0.63360000  0.96210000  0.93440000  1
  C  C593  1  0.65730000  0.94840000  0.92110000  1
  C  C594  1  0.04750000  0.43130000  0.95360000  1
  C  C595  1  0.08000000  0.46590000  0.71480000  1
  C  C596  1  0.38640000  0.46590000  0.71590000  1
  C  C597  1  0.24610000  0.36530000  0.81870000  1
  C  C598  1  0.21980000  0.35030000  0.84510000  1
  C  C599  1  0.17470000  0.33270000  0.83360000  1
  C  C600  1  0.15640000  0.28890000  0.82220000  1
  C  C601  1  0.14190000  0.26180000  0.84930000  1
  C  C602  1  0.05060000  0.11670000  0.94950000  1
  C  C603  1  0.88060000  0.94820000  0.95250000  1
  C  C604  1  0.62860000  0.78520000  0.84400000  1
  C  C605  1  0.61910000  0.86000000  0.85010000  1
  C  C606  1  0.57110000  0.95660000  0.95190000  1
  C  C607  1  0.65550000  0.82775000  0.83333000  1
  C  C608  1  0.45070000  0.10120000  0.40056667  1
  C  C609  1  0.47790000  0.13790000  0.41346667  1
  C  C610  1  0.46380000  0.16010000  0.42856667  1
  C  C611  1  0.42250000  0.14550000  0.43076667  1
  C  C612  1  0.39520000  0.10870000  0.41796667  1
  C  C613  1  0.40930000  0.08660000  0.40286667  1
  C  C614  1  0.40960000  0.17310000  0.44496667  1
  C  C615  1  0.38030000  0.15790000  0.46676667  1
  C  C616  1  0.36420000  0.18110000  0.47726667  1
  C  C617  1  0.37740000  0.21950000  0.46576667  1
  C  C618  1  0.40660000  0.23460000  0.44386667  1
  C  C619  1  0.42280000  0.21150000  0.43346667  1
  C  C620  1  0.28510000  0.15340000  0.53666667  1
  C  C621  1  0.27240000  0.16350000  0.56216667  1
  C  C622  1  0.29820000  0.19920000  0.57686667  1
  C  C623  1  0.33690000  0.22480000  0.56596667  1
  C  C624  1  0.34960000  0.21460000  0.54046667  1
  C  C625  1  0.32380000  0.17900000  0.52576667  1
  C  C626  1  0.23050000  0.13540000  0.57436667  1
  C  C627  1  0.21890000  0.09680000  0.58446667  1
  C  C628  1  0.18210000  0.07430000  0.59896667  1
  C  C629  1  0.15710000  0.09060000  0.60336667  1
  C  C630  1  0.16880000  0.12930000  0.59326667  1
  C  C631  1  0.20550000  0.15170000  0.57876667  1
  C  C632  1  0.42170000  0.27560000  0.43006667  1
  C  C633  1  0.39480000  0.28650000  0.41836667  1
  C  C634  1  0.40960000  0.32300000  0.40346667  1
  C  C635  1  0.45100000  0.34850000  0.40016667  1
  C  C636  1  0.47780000  0.33750000  0.41196667  1
  C  C637  1  0.46310000  0.30110000  0.42686667  1
  C  C638  1  0.36300000  0.26710000  0.57926667  1
  C  C639  1  0.34460000  0.28790000  0.59026667  1
  C  C640  1  0.36780000  0.32530000  0.60366667  1
  C  C641  1  0.40950000  0.34200000  0.60596667  1
  C  C642  1  0.42790000  0.32120000  0.59496667  1
  C  C643  1  0.40460000  0.28370000  0.58166667  1
  C  C644  1  0.93450000  0.09140000  0.60466667  1
  C  C645  1  0.89320000  0.07580000  0.60086667  1
  C  C646  1  0.87910000  0.09880000  0.58686667  1
  C  C647  1  0.90630000  0.13730000  0.57676667  1
  C  C648  1  0.94770000  0.15290000  0.58046667  1
  C  C649  1  0.96180000  0.13000000  0.59446667  1
  C  C650  1  0.89090000  0.16470000  0.56366667  1
  C  C651  1  0.90600000  0.20350000  0.57486667  1
  C  C652  1  0.89670000  0.23040000  0.56126667  1
  C  C653  1  0.87230000  0.21850000  0.53636667  1
  C  C654  1  0.85720000  0.17970000  0.52516667  1
  C  C655  1  0.86660000  0.15280000  0.53886667  1
  C  C656  1  0.90980000  0.27060000  0.57566667  1
  C  C657  1  0.88490000  0.28740000  0.57686667  1
  C  C658  1  0.89860000  0.32480000  0.59026667  1
  C  C659  1  0.93710000  0.34530000  0.60226667  1
  C  C660  1  0.96210000  0.32850000  0.60106667  1
  C  C661  1  0.94840000  0.29110000  0.58776667  1
  C  C662  1  0.43130000  0.38380000  0.62026667  1
  C  C663  1  0.46590000  0.38590000  0.38146667  1
  C  C664  1  0.46590000  0.07950000  0.38256667  1
  C  C665  1  0.36530000  0.11920000  0.48536667  1
  C  C666  1  0.35030000  0.13050000  0.51176667  1
  C  C667  1  0.33270000  0.15800000  0.50026667  1
  C  C668  1  0.28890000  0.13250000  0.48886667  1
  C  C669  1  0.26180000  0.11990000  0.51596667  1
  C  C670  1  0.11670000  0.06610000  0.61616667  1
  C  C671  1  0.94820000  0.06760000  0.61916667  1
  C  C672  1  0.78520000  0.15660000  0.51066667  1
  C  C673  1  0.86000000  0.24090000  0.51676667  1
  C  C674  1  0.95660000  0.38550000  0.61856667  1
  C  C675  1  0.82775000  0.17225000  0.49999667  1
  C  C676  1  0.10120000  0.65050000  0.06723333  1
  C  C677  1  0.13790000  0.66000000  0.08013333  1
  C  C678  1  0.16010000  0.69630000  0.09523333  1
  C  C679  1  0.14550000  0.72300000  0.09743333  1
  C  C680  1  0.10870000  0.71350000  0.08463333  1
  C  C681  1  0.08660000  0.67730000  0.06953333  1
  C  C682  1  0.17310000  0.76350000  0.11163333  1
  C  C683  1  0.15790000  0.77760000  0.13343333  1
  C  C684  1  0.18110000  0.81690000  0.14393333  1
  C  C685  1  0.21950000  0.84210000  0.13243333  1
  C  C686  1  0.23460000  0.82800000  0.11053333  1
  C  C687  1  0.21150000  0.78870000  0.10013333  1
  C  C688  1  0.15340000  0.86830000  0.20333333  1
  C  C689  1  0.16350000  0.89110000  0.22883333  1
  C  C690  1  0.19920000  0.90100000  0.24353333  1
  C  C691  1  0.22480000  0.88790000  0.23263333  1
  C  C692  1  0.21460000  0.86500000  0.20713333  1
  C  C693  1  0.17900000  0.85520000  0.19243333  1
  C  C694  1  0.13540000  0.90490000  0.24103333  1
  C  C695  1  0.09680000  0.87790000  0.25113333  1
  C  C696  1  0.07430000  0.89220000  0.26563333  1
  C  C697  1  0.09060000  0.93350000  0.27003333  1
  C  C698  1  0.12930000  0.96050000  0.25993333  1
  C  C699  1  0.15170000  0.94620000  0.24543333  1
  C  C700  1  0.27560000  0.85390000  0.09673333  1
  C  C701  1  0.28650000  0.89170000  0.08503333  1
  C  C702  1  0.32300000  0.91340000  0.07013333  1
  C  C703  1  0.34850000  0.89750000  0.06683333  1
  C  C704  1  0.33750000  0.85970000  0.07863333  1
  C  C705  1  0.30110000  0.83800000  0.09353333  1
  C  C706  1  0.26710000  0.90410000  0.24593333  1
  C  C707  1  0.28790000  0.94330000  0.25693333  1
  C  C708  1  0.32530000  0.95750000  0.27033333  1
  C  C709  1  0.34200000  0.93250000  0.27263333  1
  C  C710  1  0.32120000  0.89330000  0.26163333  1
  C  C711  1  0.28370000  0.87910000  0.24833333  1
  C  C712  1  0.09140000  0.15690000  0.27133333  1
  C  C713  1  0.07580000  0.18260000  0.26753333  1
  C  C714  1  0.09880000  0.21970000  0.25353333  1
  C  C715  1  0.13730000  0.23100000  0.24343333  1
  C  C716  1  0.15290000  0.20520000  0.24713333  1
  C  C717  1  0.13000000  0.16820000  0.26113333  1
  C  C718  1  0.16470000  0.27380000  0.23033333  1
  C  C719  1  0.20350000  0.29750000  0.24153333  1
  C  C720  1  0.23040000  0.33370000  0.22793333  1
  C  C721  1  0.21850000  0.34620000  0.20303333  1
  C  C722  1  0.17970000  0.32250000  0.19183333  1
  C  C723  1  0.15280000  0.28620000  0.20553333  1
  C  C724  1  0.27060000  0.36080000  0.24233333  1
  C  C725  1  0.28740000  0.40250000  0.24353333  1
  C  C726  1  0.32480000  0.42620000  0.25693333  1
  C  C727  1  0.34530000  0.40820000  0.26893333  1
  C  C728  1  0.32850000  0.36640000  0.26773333  1
  C  C729  1  0.29110000  0.34270000  0.25443333  1
  C  C730  1  0.38380000  0.95250000  0.28693333  1
  C  C731  1  0.38590000  0.92000000  0.04813333  1
  C  C732  1  0.07950000  0.61360000  0.04923333  1
  C  C733  1  0.11920000  0.75390000  0.15203333  1
  C  C734  1  0.13050000  0.78020000  0.17843333  1
  C  C735  1  0.15800000  0.82530000  0.16693333  1
  C  C736  1  0.13250000  0.84360000  0.15553333  1
  C  C737  1  0.11990000  0.85810000  0.18263333  1
  C  C738  1  0.06610000  0.94940000  0.28283333  1
  C  C739  1  0.06760000  0.11940000  0.28583333  1
  C  C740  1  0.15660000  0.37140000  0.17733333  1
  C  C741  1  0.24090000  0.38090000  0.18343333  1
  C  C742  1  0.38550000  0.42890000  0.28523333  1
  C  C743  1  0.17225000  0.34450000  0.16666333  1
  C  C744  1  0.65050000  0.54930000  0.73390000  1
  C  C745  1  0.66000000  0.52210000  0.74680000  1
  C  C746  1  0.69630000  0.53620000  0.76190000  1
  C  C747  1  0.72300000  0.57750000  0.76410000  1
  C  C748  1  0.71350000  0.60480000  0.75130000  1
  C  C749  1  0.67730000  0.59070000  0.73620000  1
  C  C750  1  0.76350000  0.59040000  0.77830000  1
  C  C751  1  0.77760000  0.61970000  0.80010000  1
  C  C752  1  0.81690000  0.63580000  0.81060000  1
  C  C753  1  0.84210000  0.62260000  0.79910000  1
  C  C754  1  0.82800000  0.59340000  0.77720000  1
  C  C755  1  0.78870000  0.57720000  0.76680000  1
  C  C756  1  0.86830000  0.71490000  0.87000000  1
  C  C757  1  0.89110000  0.72760000  0.89550000  1
  C  C758  1  0.90100000  0.70180000  0.91020000  1
  C  C759  1  0.88790000  0.66310000  0.89930000  1
  C  C760  1  0.86500000  0.65040000  0.87380000  1
  C  C761  1  0.85520000  0.67620000  0.85910000  1
  C  C762  1  0.90490000  0.76950000  0.90770000  1
  C  C763  1  0.87790000  0.78110000  0.91780000  1
  C  C764  1  0.89220000  0.81790000  0.93230000  1
  C  C765  1  0.93350000  0.84290000  0.93670000  1
  C  C766  1  0.96050000  0.83120000  0.92660000  1
  C  C767  1  0.94620000  0.79450000  0.91210000  1
  C  C768  1  0.85390000  0.57830000  0.76340000  1
  C  C769  1  0.89170000  0.60520000  0.75170000  1
  C  C770  1  0.91340000  0.59040000  0.73680000  1
  C  C771  1  0.89750000  0.54900000  0.73350000  1
  C  C772  1  0.85970000  0.52220000  0.74530000  1
  C  C773  1  0.83800000  0.53690000  0.76020000  1
  C  C774  1  0.90410000  0.63700000  0.91260000  1
  C  C775  1  0.94330000  0.65540000  0.92360000  1
  C  C776  1  0.95750000  0.63220000  0.93700000  1
  C  C777  1  0.93250000  0.59050000  0.93930000  1
  C  C778  1  0.89330000  0.57210000  0.92830000  1
  C  C779  1  0.87910000  0.59540000  0.91500000  1
  C  C780  1  0.15690000  0.06550000  0.93800000  1
  C  C781  1  0.18260000  0.10680000  0.93420000  1
  C  C782  1  0.21970000  0.12090000  0.92020000  1
  C  C783  1  0.23100000  0.09370000  0.91010000  1
  C  C784  1  0.20520000  0.05230000  0.91380000  1
  C  C785  1  0.16820000  0.03820000  0.92780000  1
  C  C786  1  0.27380000  0.10910000  0.89700000  1
  C  C787  1  0.29750000  0.09400000  0.90820000  1
  C  C788  1  0.33370000  0.10330000  0.89460000  1
  C  C789  1  0.34620000  0.12770000  0.86970000  1
  C  C790  1  0.32250000  0.14280000  0.85850000  1
  C  C791  1  0.28620000  0.13340000  0.87220000  1
  C  C792  1  0.36080000  0.09020000  0.90900000  1
  C  C793  1  0.40250000  0.11510000  0.91020000  1
  C  C794  1  0.42620000  0.10140000  0.92360000  1
  C  C795  1  0.40820000  0.06290000  0.93560000  1
  C  C796  1  0.36640000  0.03790000  0.93440000  1
  C  C797  1  0.34270000  0.05160000  0.92110000  1
  C  C798  1  0.95250000  0.56870000  0.95360000  1
  C  C799  1  0.92000000  0.53410000  0.71480000  1
  C  C800  1  0.61360000  0.53410000  0.71590000  1
  C  C801  1  0.75390000  0.63470000  0.81870000  1
  C  C802  1  0.78020000  0.64970000  0.84510000  1
  C  C803  1  0.82530000  0.66730000  0.83360000  1
  C  C804  1  0.84360000  0.71110000  0.82220000  1
  C  C805  1  0.85810000  0.73820000  0.84930000  1
  C  C806  1  0.94940000  0.88330000  0.94950000  1
  C  C807  1  0.11940000  0.05180000  0.95250000  1
  C  C808  1  0.37140000  0.21480000  0.84400000  1
  C  C809  1  0.38090000  0.14000000  0.85010000  1
  C  C810  1  0.42890000  0.04340000  0.95190000  1
  C  C811  1  0.34450000  0.17225000  0.83333000  1
  C  C812  1  0.54930000  0.89880000  0.40056667  1
  C  C813  1  0.52210000  0.86210000  0.41346667  1
  C  C814  1  0.53620000  0.83990000  0.42856667  1
  C  C815  1  0.57750000  0.85450000  0.43076667  1
  C  C816  1  0.60480000  0.89130000  0.41796667  1
  C  C817  1  0.59070000  0.91340000  0.40286667  1
  C  C818  1  0.59040000  0.82690000  0.44496667  1
  C  C819  1  0.61970000  0.84210000  0.46676667  1
  C  C820  1  0.63580000  0.81890000  0.47726667  1
  C  C821  1  0.62260000  0.78050000  0.46576667  1
  C  C822  1  0.59340000  0.76540000  0.44386667  1
  C  C823  1  0.57720000  0.78850000  0.43346667  1
  C  C824  1  0.71490000  0.84660000  0.53666667  1
  C  C825  1  0.72760000  0.83650000  0.56216667  1
  C  C826  1  0.70180000  0.80080000  0.57686667  1
  C  C827  1  0.66310000  0.77520000  0.56596667  1
  C  C828  1  0.65040000  0.78540000  0.54046667  1
  C  C829  1  0.67620000  0.82100000  0.52576667  1
  C  C830  1  0.76950000  0.86460000  0.57436667  1
  C  C831  1  0.78110000  0.90320000  0.58446667  1
  C  C832  1  0.81790000  0.92570000  0.59896667  1
  C  C833  1  0.84290000  0.90940000  0.60336667  1
  C  C834  1  0.83120000  0.87070000  0.59326667  1
  C  C835  1  0.79450000  0.84830000  0.57876667  1
  C  C836  1  0.57830000  0.72440000  0.43006667  1
  C  C837  1  0.60520000  0.71350000  0.41836667  1
  C  C838  1  0.59040000  0.67700000  0.40346667  1
  C  C839  1  0.54900000  0.65150000  0.40016667  1
  C  C840  1  0.52220000  0.66250000  0.41196667  1
  C  C841  1  0.53690000  0.69890000  0.42686667  1
  C  C842  1  0.63700000  0.73290000  0.57926667  1
  C  C843  1  0.65540000  0.71210000  0.59026667  1
  C  C844  1  0.63220000  0.67470000  0.60366667  1
  C  C845  1  0.59050000  0.65800000  0.60596667  1
  C  C846  1  0.57210000  0.67880000  0.59496667  1
  C  C847  1  0.59540000  0.71630000  0.58166667  1
  C  C848  1  0.06550000  0.90860000  0.60466667  1
  C  C849  1  0.10680000  0.92420000  0.60086667  1
  C  C850  1  0.12090000  0.90120000  0.58686667  1
  C  C851  1  0.09370000  0.86270000  0.57676667  1
  C  C852  1  0.05230000  0.84710000  0.58046667  1
  C  C853  1  0.03820000  0.87000000  0.59446667  1
  C  C854  1  0.10910000  0.83530000  0.56366667  1
  C  C855  1  0.09400000  0.79650000  0.57486667  1
  C  C856  1  0.10330000  0.76960000  0.56126667  1
  C  C857  1  0.12770000  0.78150000  0.53636667  1
  C  C858  1  0.14280000  0.82030000  0.52516667  1
  C  C859  1  0.13340000  0.84720000  0.53886667  1
  C  C860  1  0.09020000  0.72940000  0.57566667  1
  C  C861  1  0.11510000  0.71260000  0.57686667  1
  C  C862  1  0.10140000  0.67520000  0.59026667  1
  C  C863  1  0.06290000  0.65470000  0.60226667  1
  C  C864  1  0.03790000  0.67150000  0.60106667  1
  C  C865  1  0.05160000  0.70890000  0.58776667  1
  C  C866  1  0.56870000  0.61620000  0.62026667  1
  C  C867  1  0.53410000  0.61410000  0.38146667  1
  C  C868  1  0.53410000  0.92050000  0.38256667  1
  C  C869  1  0.63470000  0.88080000  0.48536667  1
  C  C870  1  0.64970000  0.86950000  0.51176667  1
  C  C871  1  0.66730000  0.84200000  0.50026667  1
  C  C872  1  0.71110000  0.86750000  0.48886667  1
  C  C873  1  0.73820000  0.88010000  0.51596667  1
  C  C874  1  0.88330000  0.93390000  0.61616667  1
  C  C875  1  0.05180000  0.93240000  0.61916667  1
  C  C876  1  0.21480000  0.84340000  0.51066667  1
  C  C877  1  0.14000000  0.75910000  0.51676667  1
  C  C878  1  0.04340000  0.61450000  0.61856667  1
  C  C879  1  0.17225000  0.82775000  0.49999667  1
  C  C880  1  0.89880000  0.34950000  0.06723333  1
  C  C881  1  0.86210000  0.34000000  0.08013333  1
  C  C882  1  0.83990000  0.30370000  0.09523333  1
  C  C883  1  0.85450000  0.27700000  0.09743333  1
  C  C884  1  0.89130000  0.28650000  0.08463333  1
  C  C885  1  0.91340000  0.32270000  0.06953333  1
  C  C886  1  0.82690000  0.23650000  0.11163333  1
  C  C887  1  0.84210000  0.22240000  0.13343333  1
  C  C888  1  0.81890000  0.18310000  0.14393333  1
  C  C889  1  0.78050000  0.15790000  0.13243333  1
  C  C890  1  0.76540000  0.17200000  0.11053333  1
  C  C891  1  0.78850000  0.21130000  0.10013333  1
  C  C892  1  0.84660000  0.13170000  0.20333333  1
  C  C893  1  0.83650000  0.10890000  0.22883333  1
  C  C894  1  0.80080000  0.09900000  0.24353333  1
  C  C895  1  0.77520000  0.11210000  0.23263333  1
  C  C896  1  0.78540000  0.13500000  0.20713333  1
  C  C897  1  0.82100000  0.14480000  0.19243333  1
  C  C898  1  0.86460000  0.09510000  0.24103333  1
  C  C899  1  0.90320000  0.12210000  0.25113333  1
  C  C900  1  0.92570000  0.10780000  0.26563333  1
  C  C901  1  0.90940000  0.06650000  0.27003333  1
  C  C902  1  0.87070000  0.03950000  0.25993333  1
  C  C903  1  0.84830000  0.05380000  0.24543333  1
  C  C904  1  0.72440000  0.14610000  0.09673333  1
  C  C905  1  0.71350000  0.10830000  0.08503333  1
  C  C906  1  0.67700000  0.08660000  0.07013333  1
  C  C907  1  0.65150000  0.10250000  0.06683333  1
  C  C908  1  0.66250000  0.14030000  0.07863333  1
  C  C909  1  0.69890000  0.16200000  0.09353333  1
  C  C910  1  0.73290000  0.09590000  0.24593333  1
  C  C911  1  0.71210000  0.05670000  0.25693333  1
  C  C912  1  0.67470000  0.04250000  0.27033333  1
  C  C913  1  0.65800000  0.06750000  0.27263333  1
  C  C914  1  0.67880000  0.10670000  0.26163333  1
  C  C915  1  0.71630000  0.12090000  0.24833333  1
  C  C916  1  0.90860000  0.84310000  0.27133333  1
  C  C917  1  0.92420000  0.81740000  0.26753333  1
  C  C918  1  0.90120000  0.78030000  0.25353333  1
  C  C919  1  0.86270000  0.76900000  0.24343333  1
  C  C920  1  0.84710000  0.79480000  0.24713333  1
  C  C921  1  0.87000000  0.83180000  0.26113333  1
  C  C922  1  0.83530000  0.72620000  0.23033333  1
  C  C923  1  0.79650000  0.70250000  0.24153333  1
  C  C924  1  0.76960000  0.66630000  0.22793333  1
  C  C925  1  0.78150000  0.65380000  0.20303333  1
  C  C926  1  0.82030000  0.67750000  0.19183333  1
  C  C927  1  0.84720000  0.71380000  0.20553333  1
  C  C928  1  0.72940000  0.63920000  0.24233333  1
  C  C929  1  0.71260000  0.59750000  0.24353333  1
  C  C930  1  0.67520000  0.57380000  0.25693333  1
  C  C931  1  0.65470000  0.59180000  0.26893333  1
  C  C932  1  0.67150000  0.63360000  0.26773333  1
  C  C933  1  0.70890000  0.65730000  0.25443333  1
  C  C934  1  0.61620000  0.04750000  0.28693333  1
  C  C935  1  0.61410000  0.08000000  0.04813333  1
  C  C936  1  0.92050000  0.38640000  0.04923333  1
  C  C937  1  0.88080000  0.24610000  0.15203333  1
  C  C938  1  0.86950000  0.21980000  0.17843333  1
  C  C939  1  0.84200000  0.17470000  0.16693333  1
  C  C940  1  0.86750000  0.15640000  0.15553333  1
  C  C941  1  0.88010000  0.14190000  0.18263333  1
  C  C942  1  0.93390000  0.05060000  0.28283333  1
  C  C943  1  0.93240000  0.88060000  0.28583333  1
  C  C944  1  0.84340000  0.62860000  0.17733333  1
  C  C945  1  0.75910000  0.61910000  0.18343333  1
  C  C946  1  0.61450000  0.57110000  0.28523333  1
  C  C947  1  0.82775000  0.65550000  0.16666333  1
  C  C948  1  0.10120000  0.45070000  0.59943333  1
  C  C949  1  0.13790000  0.47790000  0.58653333  1
  C  C950  1  0.16010000  0.46380000  0.57143333  1
  C  C951  1  0.14550000  0.42250000  0.56923333  1
  C  C952  1  0.10870000  0.39520000  0.58203333  1
  C  C953  1  0.08660000  0.40930000  0.59713333  1
  C  C954  1  0.17310000  0.40960000  0.55503333  1
  C  C955  1  0.15790000  0.38030000  0.53323333  1
  C  C956  1  0.18110000  0.36420000  0.52273333  1
  C  C957  1  0.21950000  0.37740000  0.53423333  1
  C  C958  1  0.23460000  0.40660000  0.55613333  1
  C  C959  1  0.21150000  0.42280000  0.56653333  1
  C  C960  1  0.15340000  0.28510000  0.46333333  1
  C  C961  1  0.16350000  0.27240000  0.43783333  1
  C  C962  1  0.19920000  0.29820000  0.42313333  1
  C  C963  1  0.22480000  0.33690000  0.43403333  1
  C  C964  1  0.21460000  0.34960000  0.45953333  1
  C  C965  1  0.17900000  0.32380000  0.47423333  1
  C  C966  1  0.13540000  0.23050000  0.42563333  1
  C  C967  1  0.09680000  0.21890000  0.41553333  1
  C  C968  1  0.07430000  0.18210000  0.40103333  1
  C  C969  1  0.09060000  0.15710000  0.39663333  1
  C  C970  1  0.12930000  0.16880000  0.40673333  1
  C  C971  1  0.15170000  0.20550000  0.42123333  1
  C  C972  1  0.27560000  0.42170000  0.56993333  1
  C  C973  1  0.28650000  0.39480000  0.58163333  1
  C  C974  1  0.32300000  0.40960000  0.59653333  1
  C  C975  1  0.34850000  0.45100000  0.59983333  1
  C  C976  1  0.33750000  0.47780000  0.58803333  1
  C  C977  1  0.30110000  0.46310000  0.57313333  1
  C  C978  1  0.26710000  0.36300000  0.42073333  1
  C  C979  1  0.28790000  0.34460000  0.40973333  1
  C  C980  1  0.32530000  0.36780000  0.39633333  1
  C  C981  1  0.34200000  0.40950000  0.39403333  1
  C  C982  1  0.32120000  0.42790000  0.40503333  1
  C  C983  1  0.28370000  0.40460000  0.41833333  1
  C  C984  1  0.09140000  0.93450000  0.39533333  1
  C  C985  1  0.07580000  0.89320000  0.39913333  1
  C  C986  1  0.09880000  0.87910000  0.41313333  1
  C  C987  1  0.13730000  0.90630000  0.42323333  1
  C  C988  1  0.15290000  0.94770000  0.41953333  1
  C  C989  1  0.13000000  0.96180000  0.40553333  1
  C  C990  1  0.16470000  0.89090000  0.43633333  1
  C  C991  1  0.20350000  0.90600000  0.42513333  1
  C  C992  1  0.23040000  0.89670000  0.43873333  1
  C  C993  1  0.21850000  0.87230000  0.46363333  1
  C  C994  1  0.17970000  0.85720000  0.47483333  1
  C  C995  1  0.15280000  0.86660000  0.46113333  1
  C  C996  1  0.27060000  0.90980000  0.42433333  1
  C  C997  1  0.28740000  0.88490000  0.42313333  1
  C  C998  1  0.32480000  0.89860000  0.40973333  1
  C  C999  1  0.34530000  0.93710000  0.39773333  1
  C  C1000  1  0.32850000  0.96210000  0.39893333  1
  C  C1001  1  0.29110000  0.94840000  0.41223333  1
  C  C1002  1  0.38380000  0.43130000  0.37973333  1
  C  C1003  1  0.38590000  0.46590000  0.61853333  1
  C  C1004  1  0.07950000  0.46590000  0.61743333  1
  C  C1005  1  0.11920000  0.36530000  0.51463333  1
  C  C1006  1  0.13050000  0.35030000  0.48823333  1
  C  C1007  1  0.15800000  0.33270000  0.49973333  1
  C  C1008  1  0.13250000  0.28890000  0.51113333  1
  C  C1009  1  0.11990000  0.26180000  0.48403333  1
  C  C1010  1  0.06610000  0.11670000  0.38383333  1
  C  C1011  1  0.06760000  0.94820000  0.38083333  1
  C  C1012  1  0.15660000  0.78520000  0.48933333  1
  C  C1013  1  0.24090000  0.86000000  0.48323333  1
  C  C1014  1  0.38550000  0.95660000  0.38143333  1
  C  C1015  1  0.45070000  0.34950000  0.26610000  1
  C  C1016  1  0.47790000  0.34000000  0.25320000  1
  C  C1017  1  0.46380000  0.30370000  0.23810000  1
  C  C1018  1  0.42250000  0.27700000  0.23590000  1
  C  C1019  1  0.39520000  0.28650000  0.24870000  1
  C  C1020  1  0.40930000  0.32270000  0.26380000  1
  C  C1021  1  0.40960000  0.23650000  0.22170000  1
  C  C1022  1  0.38030000  0.22240000  0.19990000  1
  C  C1023  1  0.36420000  0.18310000  0.18940000  1
  C  C1024  1  0.37740000  0.15790000  0.20090000  1
  C  C1025  1  0.40660000  0.17200000  0.22280000  1
  C  C1026  1  0.42280000  0.21130000  0.23320000  1
  C  C1027  1  0.28510000  0.13170000  0.13000000  1
  C  C1028  1  0.27240000  0.10890000  0.10450000  1
  C  C1029  1  0.29820000  0.09900000  0.08980000  1
  C  C1030  1  0.33690000  0.11210000  0.10070000  1
  C  C1031  1  0.34960000  0.13500000  0.12620000  1
  C  C1032  1  0.32380000  0.14480000  0.14090000  1
  C  C1033  1  0.23050000  0.09510000  0.09230000  1
  C  C1034  1  0.21890000  0.12210000  0.08220000  1
  C  C1035  1  0.18210000  0.10780000  0.06770000  1
  C  C1036  1  0.15710000  0.06650000  0.06330000  1
  C  C1037  1  0.16880000  0.03950000  0.07340000  1
  C  C1038  1  0.20550000  0.05380000  0.08790000  1
  C  C1039  1  0.42170000  0.14610000  0.23660000  1
  C  C1040  1  0.39480000  0.10830000  0.24830000  1
  C  C1041  1  0.40960000  0.08660000  0.26320000  1
  C  C1042  1  0.45100000  0.10250000  0.26650000  1
  C  C1043  1  0.47780000  0.14030000  0.25470000  1
  C  C1044  1  0.46310000  0.16200000  0.23980000  1
  C  C1045  1  0.36300000  0.09590000  0.08740000  1
  C  C1046  1  0.34460000  0.05670000  0.07640000  1
  C  C1047  1  0.36780000  0.04250000  0.06300000  1
  C  C1048  1  0.40950000  0.06750000  0.06070000  1
  C  C1049  1  0.42790000  0.10670000  0.07170000  1
  C  C1050  1  0.40460000  0.12090000  0.08500000  1
  C  C1051  1  0.93450000  0.84310000  0.06200000  1
  C  C1052  1  0.89320000  0.81740000  0.06580000  1
  C  C1053  1  0.87910000  0.78030000  0.07980000  1
  C  C1054  1  0.90630000  0.76900000  0.08990000  1
  C  C1055  1  0.94770000  0.79480000  0.08620000  1
  C  C1056  1  0.96180000  0.83180000  0.07220000  1
  C  C1057  1  0.89090000  0.72620000  0.10300000  1
  C  C1058  1  0.90600000  0.70250000  0.09180000  1
  C  C1059  1  0.89670000  0.66630000  0.10540000  1
  C  C1060  1  0.87230000  0.65380000  0.13030000  1
  C  C1061  1  0.85720000  0.67750000  0.14150000  1
  C  C1062  1  0.86660000  0.71380000  0.12780000  1
  C  C1063  1  0.90980000  0.63920000  0.09100000  1
  C  C1064  1  0.88490000  0.59750000  0.08980000  1
  C  C1065  1  0.89860000  0.57380000  0.07640000  1
  C  C1066  1  0.93710000  0.59180000  0.06440000  1
  C  C1067  1  0.96210000  0.63360000  0.06560000  1
  C  C1068  1  0.94840000  0.65730000  0.07890000  1
  C  C1069  1  0.43130000  0.04750000  0.04640000  1
  C  C1070  1  0.46590000  0.08000000  0.28520000  1
  C  C1071  1  0.46590000  0.38640000  0.28410000  1
  C  C1072  1  0.36530000  0.24610000  0.18130000  1
  C  C1073  1  0.35030000  0.21980000  0.15490000  1
  C  C1074  1  0.33270000  0.17470000  0.16640000  1
  C  C1075  1  0.28890000  0.15640000  0.17780000  1
  C  C1076  1  0.26180000  0.14190000  0.15070000  1
  C  C1077  1  0.11670000  0.05060000  0.05050000  1
  C  C1078  1  0.94820000  0.88060000  0.04750000  1
  C  C1079  1  0.78520000  0.62860000  0.15600000  1
  C  C1080  1  0.86000000  0.61910000  0.14990000  1
  C  C1081  1  0.95660000  0.57110000  0.04810000  1
  C  C1082  1  0.34950000  0.89880000  0.93276667  1
  C  C1083  1  0.34000000  0.86210000  0.91986667  1
  C  C1084  1  0.30370000  0.83990000  0.90476667  1
  C  C1085  1  0.27700000  0.85450000  0.90256667  1
  C  C1086  1  0.28650000  0.89130000  0.91536667  1
  C  C1087  1  0.32270000  0.91340000  0.93046667  1
  C  C1088  1  0.23650000  0.82690000  0.88836667  1
  C  C1089  1  0.22240000  0.84210000  0.86656667  1
  C  C1090  1  0.18310000  0.81890000  0.85606667  1
  C  C1091  1  0.15790000  0.78050000  0.86756667  1
  C  C1092  1  0.17200000  0.76540000  0.88946667  1
  C  C1093  1  0.21130000  0.78850000  0.89986667  1
  C  C1094  1  0.13170000  0.84660000  0.79666667  1
  C  C1095  1  0.10890000  0.83650000  0.77116667  1
  C  C1096  1  0.09900000  0.80080000  0.75646667  1
  C  C1097  1  0.11210000  0.77520000  0.76736667  1
  C  C1098  1  0.13500000  0.78540000  0.79286667  1
  C  C1099  1  0.14480000  0.82100000  0.80756667  1
  C  C1100  1  0.09510000  0.86460000  0.75896667  1
  C  C1101  1  0.12210000  0.90320000  0.74886667  1
  C  C1102  1  0.10780000  0.92570000  0.73436667  1
  C  C1103  1  0.06650000  0.90940000  0.72996667  1
  C  C1104  1  0.03950000  0.87070000  0.74006667  1
  C  C1105  1  0.05380000  0.84830000  0.75456667  1
  C  C1106  1  0.14610000  0.72440000  0.90326667  1
  C  C1107  1  0.10830000  0.71350000  0.91496667  1
  C  C1108  1  0.08660000  0.67700000  0.92986667  1
  C  C1109  1  0.10250000  0.65150000  0.93316667  1
  C  C1110  1  0.14030000  0.66250000  0.92136667  1
  C  C1111  1  0.16200000  0.69890000  0.90646667  1
  C  C1112  1  0.09590000  0.73290000  0.75406667  1
  C  C1113  1  0.05670000  0.71210000  0.74306667  1
  C  C1114  1  0.04250000  0.67470000  0.72966667  1
  C  C1115  1  0.06750000  0.65800000  0.72736667  1
  C  C1116  1  0.10670000  0.67880000  0.73836667  1
  C  C1117  1  0.12090000  0.71630000  0.75166667  1
  C  C1118  1  0.84310000  0.90860000  0.72866667  1
  C  C1119  1  0.81740000  0.92420000  0.73246667  1
  C  C1120  1  0.78030000  0.90120000  0.74646667  1
  C  C1121  1  0.76900000  0.86270000  0.75656667  1
  C  C1122  1  0.79480000  0.84710000  0.75286667  1
  C  C1123  1  0.83180000  0.87000000  0.73886667  1
  C  C1124  1  0.72620000  0.83530000  0.76966667  1
  C  C1125  1  0.70250000  0.79650000  0.75846667  1
  C  C1126  1  0.66630000  0.76960000  0.77206667  1
  C  C1127  1  0.65380000  0.78150000  0.79696667  1
  C  C1128  1  0.67750000  0.82030000  0.80816667  1
  C  C1129  1  0.71380000  0.84720000  0.79446667  1
  C  C1130  1  0.63920000  0.72940000  0.75766667  1
  C  C1131  1  0.59750000  0.71260000  0.75646667  1
  C  C1132  1  0.57380000  0.67520000  0.74306667  1
  C  C1133  1  0.59180000  0.65470000  0.73106667  1
  C  C1134  1  0.63360000  0.67150000  0.73226667  1
  C  C1135  1  0.65730000  0.70890000  0.74556667  1
  C  C1136  1  0.04750000  0.61620000  0.71306667  1
  C  C1137  1  0.08000000  0.61410000  0.95186667  1
  C  C1138  1  0.38640000  0.92050000  0.95076667  1
  C  C1139  1  0.24610000  0.88080000  0.84796667  1
  C  C1140  1  0.21980000  0.86950000  0.82156667  1
  C  C1141  1  0.17470000  0.84200000  0.83306667  1
  C  C1142  1  0.15640000  0.86750000  0.84446667  1
  C  C1143  1  0.14190000  0.88010000  0.81736667  1
  C  C1144  1  0.05060000  0.93390000  0.71716667  1
  C  C1145  1  0.88060000  0.93240000  0.71416667  1
  C  C1146  1  0.62860000  0.84340000  0.82266667  1
  C  C1147  1  0.61910000  0.75910000  0.81656667  1
  C  C1148  1  0.57110000  0.61450000  0.71476667  1
  C  C1149  1  0.89880000  0.54930000  0.59943333  1
  C  C1150  1  0.86210000  0.52210000  0.58653333  1
  C  C1151  1  0.83990000  0.53620000  0.57143333  1
  C  C1152  1  0.85450000  0.57750000  0.56923333  1
  C  C1153  1  0.89130000  0.60480000  0.58203333  1
  C  C1154  1  0.91340000  0.59070000  0.59713333  1
  C  C1155  1  0.82690000  0.59040000  0.55503333  1
  C  C1156  1  0.84210000  0.61970000  0.53323333  1
  C  C1157  1  0.81890000  0.63580000  0.52273333  1
  C  C1158  1  0.78050000  0.62260000  0.53423333  1
  C  C1159  1  0.76540000  0.59340000  0.55613333  1
  C  C1160  1  0.78850000  0.57720000  0.56653333  1
  C  C1161  1  0.84660000  0.71490000  0.46333333  1
  C  C1162  1  0.83650000  0.72760000  0.43783333  1
  C  C1163  1  0.80080000  0.70180000  0.42313333  1
  C  C1164  1  0.77520000  0.66310000  0.43403333  1
  C  C1165  1  0.78540000  0.65040000  0.45953333  1
  C  C1166  1  0.82100000  0.67620000  0.47423333  1
  C  C1167  1  0.86460000  0.76950000  0.42563333  1
  C  C1168  1  0.90320000  0.78110000  0.41553333  1
  C  C1169  1  0.92570000  0.81790000  0.40103333  1
  C  C1170  1  0.90940000  0.84290000  0.39663333  1
  C  C1171  1  0.87070000  0.83120000  0.40673333  1
  C  C1172  1  0.84830000  0.79450000  0.42123333  1
  C  C1173  1  0.72440000  0.57830000  0.56993333  1
  C  C1174  1  0.71350000  0.60520000  0.58163333  1
  C  C1175  1  0.67700000  0.59040000  0.59653333  1
  C  C1176  1  0.65150000  0.54900000  0.59983333  1
  C  C1177  1  0.66250000  0.52220000  0.58803333  1
  C  C1178  1  0.69890000  0.53690000  0.57313333  1
  C  C1179  1  0.73290000  0.63700000  0.42073333  1
  C  C1180  1  0.71210000  0.65540000  0.40973333  1
  C  C1181  1  0.67470000  0.63220000  0.39633333  1
  C  C1182  1  0.65800000  0.59050000  0.39403333  1
  C  C1183  1  0.67880000  0.57210000  0.40503333  1
  C  C1184  1  0.71630000  0.59540000  0.41833333  1
  C  C1185  1  0.90860000  0.06550000  0.39533333  1
  C  C1186  1  0.92420000  0.10680000  0.39913333  1
  C  C1187  1  0.90120000  0.12090000  0.41313333  1
  C  C1188  1  0.86270000  0.09370000  0.42323333  1
  C  C1189  1  0.84710000  0.05230000  0.41953333  1
  C  C1190  1  0.87000000  0.03820000  0.40553333  1
  C  C1191  1  0.83530000  0.10910000  0.43633333  1
  C  C1192  1  0.79650000  0.09400000  0.42513333  1
  C  C1193  1  0.76960000  0.10330000  0.43873333  1
  C  C1194  1  0.78150000  0.12770000  0.46363333  1
  C  C1195  1  0.82030000  0.14280000  0.47483333  1
  C  C1196  1  0.84720000  0.13340000  0.46113333  1
  C  C1197  1  0.72940000  0.09020000  0.42433333  1
  C  C1198  1  0.71260000  0.11510000  0.42313333  1
  C  C1199  1  0.67520000  0.10140000  0.40973333  1
  C  C1200  1  0.65470000  0.06290000  0.39773333  1
  C  C1201  1  0.67150000  0.03790000  0.39893333  1
  C  C1202  1  0.70890000  0.05160000  0.41223333  1
  C  C1203  1  0.61620000  0.56870000  0.37973333  1
  C  C1204  1  0.61410000  0.53410000  0.61853333  1
  C  C1205  1  0.92050000  0.53410000  0.61743333  1
  C  C1206  1  0.88080000  0.63470000  0.51463333  1
  C  C1207  1  0.86950000  0.64970000  0.48823333  1
  C  C1208  1  0.84200000  0.66730000  0.49973333  1
  C  C1209  1  0.86750000  0.71110000  0.51113333  1
  C  C1210  1  0.88010000  0.73820000  0.48403333  1
  C  C1211  1  0.93390000  0.88330000  0.38383333  1
  C  C1212  1  0.93240000  0.05180000  0.38083333  1
  C  C1213  1  0.84340000  0.21480000  0.48933333  1
  C  C1214  1  0.75910000  0.14000000  0.48323333  1
  C  C1215  1  0.61450000  0.04340000  0.38143333  1
  C  C1216  1  0.54930000  0.65050000  0.26610000  1
  C  C1217  1  0.52210000  0.66000000  0.25320000  1
  C  C1218  1  0.53620000  0.69630000  0.23810000  1
  C  C1219  1  0.57750000  0.72300000  0.23590000  1
  C  C1220  1  0.60480000  0.71350000  0.24870000  1
  C  C1221  1  0.59070000  0.67730000  0.26380000  1
  C  C1222  1  0.59040000  0.76350000  0.22170000  1
  C  C1223  1  0.61970000  0.77760000  0.19990000  1
  C  C1224  1  0.63580000  0.81690000  0.18940000  1
  C  C1225  1  0.62260000  0.84210000  0.20090000  1
  C  C1226  1  0.59340000  0.82800000  0.22280000  1
  C  C1227  1  0.57720000  0.78870000  0.23320000  1
  C  C1228  1  0.71490000  0.86830000  0.13000000  1
  C  C1229  1  0.72760000  0.89110000  0.10450000  1
  C  C1230  1  0.70180000  0.90100000  0.08980000  1
  C  C1231  1  0.66310000  0.88790000  0.10070000  1
  C  C1232  1  0.65040000  0.86500000  0.12620000  1
  C  C1233  1  0.67620000  0.85520000  0.14090000  1
  C  C1234  1  0.76950000  0.90490000  0.09230000  1
  C  C1235  1  0.78110000  0.87790000  0.08220000  1
  C  C1236  1  0.81790000  0.89220000  0.06770000  1
  C  C1237  1  0.84290000  0.93350000  0.06330000  1
  C  C1238  1  0.83120000  0.96050000  0.07340000  1
  C  C1239  1  0.79450000  0.94620000  0.08790000  1
  C  C1240  1  0.57830000  0.85390000  0.23660000  1
  C  C1241  1  0.60520000  0.89170000  0.24830000  1
  C  C1242  1  0.59040000  0.91340000  0.26320000  1
  C  C1243  1  0.54900000  0.89750000  0.26650000  1
  C  C1244  1  0.52220000  0.85970000  0.25470000  1
  C  C1245  1  0.53690000  0.83800000  0.23980000  1
  C  C1246  1  0.63700000  0.90410000  0.08740000  1
  C  C1247  1  0.65540000  0.94330000  0.07640000  1
  C  C1248  1  0.63220000  0.95750000  0.06300000  1
  C  C1249  1  0.59050000  0.93250000  0.06070000  1
  C  C1250  1  0.57210000  0.89330000  0.07170000  1
  C  C1251  1  0.59540000  0.87910000  0.08500000  1
  C  C1252  1  0.06550000  0.15690000  0.06200000  1
  C  C1253  1  0.10680000  0.18260000  0.06580000  1
  C  C1254  1  0.12090000  0.21970000  0.07980000  1
  C  C1255  1  0.09370000  0.23100000  0.08990000  1
  C  C1256  1  0.05230000  0.20520000  0.08620000  1
  C  C1257  1  0.03820000  0.16820000  0.07220000  1
  C  C1258  1  0.10910000  0.27380000  0.10300000  1
  C  C1259  1  0.09400000  0.29750000  0.09180000  1
  C  C1260  1  0.10330000  0.33370000  0.10540000  1
  C  C1261  1  0.12770000  0.34620000  0.13030000  1
  C  C1262  1  0.14280000  0.32250000  0.14150000  1
  C  C1263  1  0.13340000  0.28620000  0.12780000  1
  C  C1264  1  0.09020000  0.36080000  0.09100000  1
  C  C1265  1  0.11510000  0.40250000  0.08980000  1
  C  C1266  1  0.10140000  0.42620000  0.07640000  1
  C  C1267  1  0.06290000  0.40820000  0.06440000  1
  C  C1268  1  0.03790000  0.36640000  0.06560000  1
  C  C1269  1  0.05160000  0.34270000  0.07890000  1
  C  C1270  1  0.56870000  0.95250000  0.04640000  1
  C  C1271  1  0.53410000  0.92000000  0.28520000  1
  C  C1272  1  0.53410000  0.61360000  0.28410000  1
  C  C1273  1  0.63470000  0.75390000  0.18130000  1
  C  C1274  1  0.64970000  0.78020000  0.15490000  1
  C  C1275  1  0.66730000  0.82530000  0.16640000  1
  C  C1276  1  0.71110000  0.84360000  0.17780000  1
  C  C1277  1  0.73820000  0.85810000  0.15070000  1
  C  C1278  1  0.88330000  0.94940000  0.05050000  1
  C  C1279  1  0.05180000  0.11940000  0.04750000  1
  C  C1280  1  0.21480000  0.37140000  0.15600000  1
  C  C1281  1  0.14000000  0.38090000  0.14990000  1
  C  C1282  1  0.04340000  0.42890000  0.04810000  1
  C  C1283  1  0.65050000  0.10120000  0.93276667  1
  C  C1284  1  0.66000000  0.13790000  0.91986667  1
  C  C1285  1  0.69630000  0.16010000  0.90476667  1
  C  C1286  1  0.72300000  0.14550000  0.90256667  1
  C  C1287  1  0.71350000  0.10870000  0.91536667  1
  C  C1288  1  0.67730000  0.08660000  0.93046667  1
  C  C1289  1  0.76350000  0.17310000  0.88836667  1
  C  C1290  1  0.77760000  0.15790000  0.86656667  1
  C  C1291  1  0.81690000  0.18110000  0.85606667  1
  C  C1292  1  0.84210000  0.21950000  0.86756667  1
  C  C1293  1  0.82800000  0.23460000  0.88946667  1
  C  C1294  1  0.78870000  0.21150000  0.89986667  1
  C  C1295  1  0.86830000  0.15340000  0.79666667  1
  C  C1296  1  0.89110000  0.16350000  0.77116667  1
  C  C1297  1  0.90100000  0.19920000  0.75646667  1
  C  C1298  1  0.88790000  0.22480000  0.76736667  1
  C  C1299  1  0.86500000  0.21460000  0.79286667  1
  C  C1300  1  0.85520000  0.17900000  0.80756667  1
  C  C1301  1  0.90490000  0.13540000  0.75896667  1
  C  C1302  1  0.87790000  0.09680000  0.74886667  1
  C  C1303  1  0.89220000  0.07430000  0.73436667  1
  C  C1304  1  0.93350000  0.09060000  0.72996667  1
  C  C1305  1  0.96050000  0.12930000  0.74006667  1
  C  C1306  1  0.94620000  0.15170000  0.75456667  1
  C  C1307  1  0.85390000  0.27560000  0.90326667  1
  C  C1308  1  0.89170000  0.28650000  0.91496667  1
  C  C1309  1  0.91340000  0.32300000  0.92986667  1
  C  C1310  1  0.89750000  0.34850000  0.93316667  1
  C  C1311  1  0.85970000  0.33750000  0.92136667  1
  C  C1312  1  0.83800000  0.30110000  0.90646667  1
  C  C1313  1  0.90410000  0.26710000  0.75406667  1
  C  C1314  1  0.94330000  0.28790000  0.74306667  1
  C  C1315  1  0.95750000  0.32530000  0.72966667  1
  C  C1316  1  0.93250000  0.34200000  0.72736667  1
  C  C1317  1  0.89330000  0.32120000  0.73836667  1
  C  C1318  1  0.87910000  0.28370000  0.75166667  1
  C  C1319  1  0.15690000  0.09140000  0.72866667  1
  C  C1320  1  0.18260000  0.07580000  0.73246667  1
  C  C1321  1  0.21970000  0.09880000  0.74646667  1
  C  C1322  1  0.23100000  0.13730000  0.75656667  1
  C  C1323  1  0.20520000  0.15290000  0.75286667  1
  C  C1324  1  0.16820000  0.13000000  0.73886667  1
  C  C1325  1  0.27380000  0.16470000  0.76966667  1
  C  C1326  1  0.29750000  0.20350000  0.75846667  1
  C  C1327  1  0.33370000  0.23040000  0.77206667  1
  C  C1328  1  0.34620000  0.21850000  0.79696667  1
  C  C1329  1  0.32250000  0.17970000  0.80816667  1
  C  C1330  1  0.28620000  0.15280000  0.79446667  1
  C  C1331  1  0.36080000  0.27060000  0.75766667  1
  C  C1332  1  0.40250000  0.28740000  0.75646667  1
  C  C1333  1  0.42620000  0.32480000  0.74306667  1
  C  C1334  1  0.40820000  0.34530000  0.73106667  1
  C  C1335  1  0.36640000  0.32850000  0.73226667  1
  C  C1336  1  0.34270000  0.29110000  0.74556667  1
  C  C1337  1  0.95250000  0.38380000  0.71306667  1
  C  C1338  1  0.92000000  0.38590000  0.95186667  1
  C  C1339  1  0.61360000  0.07950000  0.95076667  1
  C  C1340  1  0.75390000  0.11920000  0.84796667  1
  C  C1341  1  0.78020000  0.13050000  0.82156667  1
  C  C1342  1  0.82530000  0.15800000  0.83306667  1
  C  C1343  1  0.84360000  0.13250000  0.84446667  1
  C  C1344  1  0.85810000  0.11990000  0.81736667  1
  C  C1345  1  0.94940000  0.06610000  0.71716667  1
  C  C1346  1  0.11940000  0.06760000  0.71416667  1
  C  C1347  1  0.37140000  0.15660000  0.82266667  1
  C  C1348  1  0.38090000  0.24090000  0.81656667  1
  C  C1349  1  0.42890000  0.38550000  0.71476667  1
  O  O1350  1  0.00560000  0.53260000  0.95970000  1
  O  O1351  1  0.05780000  0.55010000  0.00000000  1
  O  O1352  1  0.04680000  0.48670000  0.00010000  1
  O  O1353  1  0.06520000  0.47070000  0.94680000  1
  O  O1354  1  0.02060000  0.41300000  0.97280000  1
  O  O1355  1  0.07350000  0.36510000  0.84680000  1
  O  O1356  1  0.13610000  0.43320000  0.82970000  1
  O  O1357  1  0.14800000  0.38860000  0.86170000  1
  O  O1358  1  0.12050000  0.36270000  0.80980000  1
  O  O1359  1  0.05630000  0.44160000  0.69590000  1
  O  O1360  1  0.08410000  0.49950000  0.72130000  1
  O  O1361  1  0.41670000  0.49960000  0.72120000  1
  O  O1362  1  0.38500000  0.44190000  0.69490000  1
  O  O1363  1  0.07430000  0.11490000  0.96860000  1
  O  O1364  1  0.01510000  0.09000000  0.94670000  1
  O  O1365  1  0.02990000  0.02970000  0.96110000  1
  O  O1366  1  0.00410000  0.05780000  0.00020000  1
  O  O1367  1  0.90850000  0.98440000  0.94700000  1
  O  O1368  1  0.88540000  0.92520000  0.97040000  1
  O  O1369  1  0.79250000  0.92780000  0.84380000  1
  O  O1370  1  0.74040000  0.85610000  0.85790000  1
  O  O1371  1  0.58800000  0.97990000  0.97030000  1
  O  O1372  1  0.53180000  0.93650000  0.94670000  1
  O  O1373  1  0.53550000  0.00650000  0.96130000  1
  O  O1374  1  0.53260000  0.52700000  0.62636667  1
  O  O1375  1  0.55010000  0.49230000  0.66666667  1
  O  O1376  1  0.48670000  0.43990000  0.66676667  1
  O  O1377  1  0.47070000  0.40550000  0.61346667  1
  O  O1378  1  0.41300000  0.39240000  0.63946667  1
  O  O1379  1  0.36510000  0.29160000  0.51346667  1
  O  O1380  1  0.43320000  0.29710000  0.49636667  1
  O  O1381  1  0.38860000  0.24060000  0.52836667  1
  O  O1382  1  0.36270000  0.24220000  0.47646667  1
  O  O1383  1  0.44160000  0.38530000  0.36256667  1
  O  O1384  1  0.49950000  0.41540000  0.38796667  1
  O  O1385  1  0.49960000  0.08290000  0.38786667  1
  O  O1386  1  0.44190000  0.05690000  0.36156667  1
  O  O1387  1  0.11490000  0.04060000  0.63526667  1
  O  O1388  1  0.09000000  0.07490000  0.61336667  1
  O  O1389  1  0.02970000  0.99980000  0.62776667  1
  O  O1390  1  0.05780000  0.05370000  0.66686667  1
  O  O1391  1  0.98440000  0.07590000  0.61366667  1
  O  O1392  1  0.92520000  0.03980000  0.63706667  1
  O  O1393  1  0.92780000  0.13530000  0.51046667  1
  O  O1394  1  0.85610000  0.11570000  0.52456667  1
  O  O1395  1  0.97990000  0.39190000  0.63696667  1
  O  O1396  1  0.93650000  0.40470000  0.61336667  1
  O  O1397  1  0.00650000  0.47100000  0.62796667  1
  O  O1398  1  0.52700000  0.99440000  0.29303333  1
  O  O1399  1  0.49230000  0.94220000  0.33333333  1
  O  O1400  1  0.43990000  0.95320000  0.33343333  1
  O  O1401  1  0.40550000  0.93480000  0.28013333  1
  O  O1402  1  0.39240000  0.97940000  0.30613333  1
  O  O1403  1  0.29160000  0.92650000  0.18013333  1
  O  O1404  1  0.29710000  0.86390000  0.16303333  1
  O  O1405  1  0.24060000  0.85200000  0.19503333  1
  O  O1406  1  0.24220000  0.87950000  0.14313333  1
  O  O1407  1  0.38530000  0.94370000  0.02923333  1
  O  O1408  1  0.41540000  0.91590000  0.05463333  1
  O  O1409  1  0.08290000  0.58330000  0.05453333  1
  O  O1410  1  0.05690000  0.61500000  0.02823333  1
  O  O1411  1  0.04060000  0.92570000  0.30193333  1
  O  O1412  1  0.07490000  0.98490000  0.28003333  1
  O  O1413  1  0.99980000  0.97010000  0.29443333  1
  O  O1414  1  0.05370000  0.99590000  0.33353333  1
  O  O1415  1  0.07590000  0.09150000  0.28033333  1
  O  O1416  1  0.03980000  0.11460000  0.30373333  1
  O  O1417  1  0.13530000  0.20750000  0.17713333  1
  O  O1418  1  0.11570000  0.25960000  0.19123333  1
  O  O1419  1  0.39190000  0.41200000  0.30363333  1
  O  O1420  1  0.40470000  0.46820000  0.28003333  1
  O  O1421  1  0.47100000  0.46450000  0.29463333  1
  O  O1422  1  0.99440000  0.46740000  0.95970000  1
  O  O1423  1  0.94220000  0.44990000  1.00000000  1
  O  O1424  1  0.95320000  0.51330000  0.00010000  1
  O  O1425  1  0.93480000  0.52930000  0.94680000  1
  O  O1426  1  0.97940000  0.58700000  0.97280000  1
  O  O1427  1  0.92650000  0.63490000  0.84680000  1
  O  O1428  1  0.86390000  0.56680000  0.82970000  1
  O  O1429  1  0.85200000  0.61140000  0.86170000  1
  O  O1430  1  0.87950000  0.63730000  0.80980000  1
  O  O1431  1  0.94370000  0.55840000  0.69590000  1
  O  O1432  1  0.91590000  0.50050000  0.72130000  1
  O  O1433  1  0.58330000  0.50040000  0.72120000  1
  O  O1434  1  0.61500000  0.55810000  0.69490000  1
  O  O1435  1  0.92570000  0.88510000  0.96860000  1
  O  O1436  1  0.98490000  0.91000000  0.94670000  1
  O  O1437  1  0.97010000  0.97030000  0.96110000  1
  O  O1438  1  0.99590000  0.94220000  0.00020000  1
  O  O1439  1  0.09150000  0.01560000  0.94700000  1
  O  O1440  1  0.11460000  0.07480000  0.97040000  1
  O  O1441  1  0.20750000  0.07220000  0.84380000  1
  O  O1442  1  0.25960000  0.14390000  0.85790000  1
  O  O1443  1  0.41200000  0.02010000  0.97030000  1
  O  O1444  1  0.46820000  0.06350000  0.94670000  1
  O  O1445  1  0.46450000  0.99350000  0.96130000  1
  O  O1446  1  0.46740000  0.47300000  0.62636667  1
  O  O1447  1  0.44990000  0.50770000  0.66666667  1
  O  O1448  1  0.51330000  0.56010000  0.66676667  1
  O  O1449  1  0.52930000  0.59450000  0.61346667  1
  O  O1450  1  0.58700000  0.60760000  0.63946667  1
  O  O1451  1  0.63490000  0.70840000  0.51346667  1
  O  O1452  1  0.56680000  0.70290000  0.49636667  1
  O  O1453  1  0.61140000  0.75940000  0.52836667  1
  O  O1454  1  0.63730000  0.75780000  0.47646667  1
  O  O1455  1  0.55840000  0.61470000  0.36256667  1
  O  O1456  1  0.50050000  0.58460000  0.38796667  1
  O  O1457  1  0.50040000  0.91710000  0.38786667  1
  O  O1458  1  0.55810000  0.94310000  0.36156667  1
  O  O1459  1  0.88510000  0.95940000  0.63526667  1
  O  O1460  1  0.91000000  0.92510000  0.61336667  1
  O  O1461  1  0.97030000  0.00020000  0.62776667  1
  O  O1462  1  0.94220000  0.94630000  0.66686667  1
  O  O1463  1  0.01560000  0.92410000  0.61366667  1
  O  O1464  1  0.07480000  0.96020000  0.63706667  1
  O  O1465  1  0.07220000  0.86470000  0.51046667  1
  O  O1466  1  0.14390000  0.88430000  0.52456667  1
  O  O1467  1  0.02010000  0.60810000  0.63696667  1
  O  O1468  1  0.06350000  0.59530000  0.61336667  1
  O  O1469  1  0.99350000  0.52900000  0.62796667  1
  O  O1470  1  0.47300000  0.00560000  0.29303333  1
  O  O1471  1  0.50770000  0.05780000  0.33333333  1
  O  O1472  1  0.56010000  0.04680000  0.33343333  1
  O  O1473  1  0.59450000  0.06520000  0.28013333  1
  O  O1474  1  0.60760000  0.02060000  0.30613333  1
  O  O1475  1  0.70840000  0.07350000  0.18013333  1
  O  O1476  1  0.70290000  0.13610000  0.16303333  1
  O  O1477  1  0.75940000  0.14800000  0.19503333  1
  O  O1478  1  0.75780000  0.12050000  0.14313333  1
  O  O1479  1  0.61470000  0.05630000  0.02923333  1
  O  O1480  1  0.58460000  0.08410000  0.05463333  1
  O  O1481  1  0.91710000  0.41670000  0.05453333  1
  O  O1482  1  0.94310000  0.38500000  0.02823333  1
  O  O1483  1  0.95940000  0.07430000  0.30193333  1
  O  O1484  1  0.92510000  0.01510000  0.28003333  1
  O  O1485  1  0.00020000  0.02990000  0.29443333  1
  O  O1486  1  0.94630000  0.00410000  0.33353333  1
  O  O1487  1  0.92410000  0.90850000  0.28033333  1
  O  O1488  1  0.96020000  0.88540000  0.30373333  1
  O  O1489  1  0.86470000  0.79250000  0.17713333  1
  O  O1490  1  0.88430000  0.74040000  0.19123333  1
  O  O1491  1  0.60810000  0.58800000  0.30363333  1
  O  O1492  1  0.59530000  0.53180000  0.28003333  1
  O  O1493  1  0.52900000  0.53550000  0.29463333  1
  O  O1494  1  0.52700000  0.53260000  0.37363333  1
  O  O1495  1  0.49230000  0.55010000  0.33333333  1
  O  O1496  1  0.43990000  0.48670000  0.33323333  1
  O  O1497  1  0.40550000  0.47070000  0.38653333  1
  O  O1498  1  0.39240000  0.41300000  0.36053333  1
  O  O1499  1  0.29160000  0.36510000  0.48653333  1
  O  O1500  1  0.29710000  0.43320000  0.50363333  1
  O  O1501  1  0.24060000  0.38860000  0.47163333  1
  O  O1502  1  0.24220000  0.36270000  0.52353333  1
  O  O1503  1  0.38530000  0.44160000  0.63743333  1
  O  O1504  1  0.41540000  0.49950000  0.61203333  1
  O  O1505  1  0.08290000  0.49960000  0.61213333  1
  O  O1506  1  0.05690000  0.44190000  0.63843333  1
  O  O1507  1  0.04060000  0.11490000  0.36473333  1
  O  O1508  1  0.07490000  0.09000000  0.38663333  1
  O  O1509  1  0.99980000  0.02970000  0.37223333  1
  O  O1510  1  0.05370000  0.05780000  0.33313333  1
  O  O1511  1  0.07590000  0.98440000  0.38633333  1
  O  O1512  1  0.03980000  0.92520000  0.36293333  1
  O  O1513  1  0.13530000  0.92780000  0.48953333  1
  O  O1514  1  0.11570000  0.85610000  0.47543333  1
  O  O1515  1  0.39190000  0.97990000  0.36303333  1
  O  O1516  1  0.40470000  0.93650000  0.38663333  1
  O  O1517  1  0.47100000  0.00650000  0.37203333  1
  O  O1518  1  0.53260000  0.00560000  0.04030000  1
  O  O1519  1  0.55010000  0.05780000  0.00000000  1
  O  O1520  1  0.48670000  0.04680000  0.99990000  1
  O  O1521  1  0.47070000  0.06520000  0.05320000  1
  O  O1522  1  0.41300000  0.02060000  0.02720000  1
  O  O1523  1  0.36510000  0.07350000  0.15320000  1
  O  O1524  1  0.43320000  0.13610000  0.17030000  1
  O  O1525  1  0.38860000  0.14800000  0.13830000  1
  O  O1526  1  0.36270000  0.12050000  0.19020000  1
  O  O1527  1  0.44160000  0.05630000  0.30410000  1
  O  O1528  1  0.49950000  0.08410000  0.27870000  1
  O  O1529  1  0.49960000  0.41670000  0.27880000  1
  O  O1530  1  0.44190000  0.38500000  0.30510000  1
  O  O1531  1  0.11490000  0.07430000  0.03140000  1
  O  O1532  1  0.09000000  0.01510000  0.05330000  1
  O  O1533  1  0.02970000  0.02990000  0.03890000  1
  O  O1534  1  0.05780000  0.00410000  0.99980000  1
  O  O1535  1  0.98440000  0.90850000  0.05300000  1
  O  O1536  1  0.92520000  0.88540000  0.02960000  1
  O  O1537  1  0.92780000  0.79250000  0.15620000  1
  O  O1538  1  0.85610000  0.74040000  0.14210000  1
  O  O1539  1  0.97990000  0.58800000  0.02970000  1
  O  O1540  1  0.93650000  0.53180000  0.05330000  1
  O  O1541  1  0.00650000  0.53550000  0.03870000  1
  O  O1542  1  0.00560000  0.47300000  0.70696667  1
  O  O1543  1  0.05780000  0.50770000  0.66666667  1
  O  O1544  1  0.04680000  0.56010000  0.66656667  1
  O  O1545  1  0.06520000  0.59450000  0.71986667  1
  O  O1546  1  0.02060000  0.60760000  0.69386667  1
  O  O1547  1  0.07350000  0.70840000  0.81986667  1
  O  O1548  1  0.13610000  0.70290000  0.83696667  1
  O  O1549  1  0.14800000  0.75940000  0.80496667  1
  O  O1550  1  0.12050000  0.75780000  0.85686667  1
  O  O1551  1  0.05630000  0.61470000  0.97076667  1
  O  O1552  1  0.08410000  0.58460000  0.94536667  1
  O  O1553  1  0.41670000  0.91710000  0.94546667  1
  O  O1554  1  0.38500000  0.94310000  0.97176667  1
  O  O1555  1  0.07430000  0.95940000  0.69806667  1
  O  O1556  1  0.01510000  0.92510000  0.71996667  1
  O  O1557  1  0.02990000  0.00020000  0.70556667  1
  O  O1558  1  0.00410000  0.94630000  0.66646667  1
  O  O1559  1  0.90850000  0.92410000  0.71966667  1
  O  O1560  1  0.88540000  0.96020000  0.69626667  1
  O  O1561  1  0.79250000  0.86470000  0.82286667  1
  O  O1562  1  0.74040000  0.88430000  0.80876667  1
  O  O1563  1  0.58800000  0.60810000  0.69636667  1
  O  O1564  1  0.53180000  0.59530000  0.71996667  1
  O  O1565  1  0.53550000  0.52900000  0.70536667  1
  O  O1566  1  0.47300000  0.46740000  0.37363333  1
  O  O1567  1  0.50770000  0.44990000  0.33333333  1
  O  O1568  1  0.56010000  0.51330000  0.33323333  1
  O  O1569  1  0.59450000  0.52930000  0.38653333  1
  O  O1570  1  0.60760000  0.58700000  0.36053333  1
  O  O1571  1  0.70840000  0.63490000  0.48653333  1
  O  O1572  1  0.70290000  0.56680000  0.50363333  1
  O  O1573  1  0.75940000  0.61140000  0.47163333  1
  O  O1574  1  0.75780000  0.63730000  0.52353333  1
  O  O1575  1  0.61470000  0.55840000  0.63743333  1
  O  O1576  1  0.58460000  0.50050000  0.61203333  1
  O  O1577  1  0.91710000  0.50040000  0.61213333  1
  O  O1578  1  0.94310000  0.55810000  0.63843333  1
  O  O1579  1  0.95940000  0.88510000  0.36473333  1
  O  O1580  1  0.92510000  0.91000000  0.38663333  1
  O  O1581  1  0.00020000  0.97030000  0.37223333  1
  O  O1582  1  0.94630000  0.94220000  0.33313333  1
  O  O1583  1  0.92410000  0.01560000  0.38633333  1
  O  O1584  1  0.96020000  0.07480000  0.36293333  1
  O  O1585  1  0.86470000  0.07220000  0.48953333  1
  O  O1586  1  0.88430000  0.14390000  0.47543333  1
  O  O1587  1  0.60810000  0.02010000  0.36303333  1
  O  O1588  1  0.59530000  0.06350000  0.38663333  1
  O  O1589  1  0.52900000  0.99350000  0.37203333  1
  O  O1590  1  0.46740000  0.99440000  0.04030000  1
  O  O1591  1  0.44990000  0.94220000  0.00000000  1
  O  O1592  1  0.51330000  0.95320000  0.99990000  1
  O  O1593  1  0.52930000  0.93480000  0.05320000  1
  O  O1594  1  0.58700000  0.97940000  0.02720000  1
  O  O1595  1  0.63490000  0.92650000  0.15320000  1
  O  O1596  1  0.56680000  0.86390000  0.17030000  1
  O  O1597  1  0.61140000  0.85200000  0.13830000  1
  O  O1598  1  0.63730000  0.87950000  0.19020000  1
  O  O1599  1  0.55840000  0.94370000  0.30410000  1
  O  O1600  1  0.50050000  0.91590000  0.27870000  1
  O  O1601  1  0.50040000  0.58330000  0.27880000  1
  O  O1602  1  0.55810000  0.61500000  0.30510000  1
  O  O1603  1  0.88510000  0.92570000  0.03140000  1
  O  O1604  1  0.91000000  0.98490000  0.05330000  1
  O  O1605  1  0.97030000  0.97010000  0.03890000  1
  O  O1606  1  0.94220000  0.99590000  0.99980000  1
  O  O1607  1  0.01560000  0.09150000  0.05300000  1
  O  O1608  1  0.07480000  0.11460000  0.02960000  1
  O  O1609  1  0.07220000  0.20750000  0.15620000  1
  O  O1610  1  0.14390000  0.25960000  0.14210000  1
  O  O1611  1  0.02010000  0.41200000  0.02970000  1
  O  O1612  1  0.06350000  0.46820000  0.05330000  1
  O  O1613  1  0.99350000  0.46450000  0.03870000  1
  O  O1614  1  0.99440000  0.52700000  0.70696667  1
  O  O1615  1  0.94220000  0.49230000  0.66666667  1
  O  O1616  1  0.95320000  0.43990000  0.66656667  1
  O  O1617  1  0.93480000  0.40550000  0.71986667  1
  O  O1618  1  0.97940000  0.39240000  0.69386667  1
  O  O1619  1  0.92650000  0.29160000  0.81986667  1
  O  O1620  1  0.86390000  0.29710000  0.83696667  1
  O  O1621  1  0.85200000  0.24060000  0.80496667  1
  O  O1622  1  0.87950000  0.24220000  0.85686667  1
  O  O1623  1  0.94370000  0.38530000  0.97076667  1
  O  O1624  1  0.91590000  0.41540000  0.94536667  1
  O  O1625  1  0.58330000  0.08290000  0.94546667  1
  O  O1626  1  0.61500000  0.05690000  0.97176667  1
  O  O1627  1  0.92570000  0.04060000  0.69806667  1
  O  O1628  1  0.98490000  0.07490000  0.71996667  1
  O  O1629  1  0.97010000  0.99980000  0.70556667  1
  O  O1630  1  0.99590000  0.05370000  0.66646667  1
  O  O1631  1  0.09150000  0.07590000  0.71966667  1
  O  O1632  1  0.11460000  0.03980000  0.69626667  1
  O  O1633  1  0.20750000  0.13530000  0.82286667  1
  O  O1634  1  0.25960000  0.11570000  0.80876667  1
  O  O1635  1  0.41200000  0.39190000  0.69636667  1
  O  O1636  1  0.46820000  0.40470000  0.71996667  1
  O  O1637  1  0.46450000  0.47100000  0.70536667  1
