# generated using pymatgen
data_Zr3PH34C61O20
_symmetry_space_group_name_H-M   'P 1'
_cell_length_a   45.12200000
_cell_length_b   45.12200000
_cell_length_c   49.23800000
_cell_angle_alpha   90.00000000
_cell_angle_beta   90.00000000
_cell_angle_gamma   120.00000000
_symmetry_Int_Tables_number   1
_chemical_formula_structural   Zr3PH34C61O20
_chemical_formula_sum   'Zr54 P18 H612 C1098 O360'
_cell_volume   86817.58842782
_cell_formula_units_Z   18
loop_
 _symmetry_equiv_pos_site_id
 _symmetry_equiv_pos_as_xyz
  1  'x, y, z'
loop_
 _atom_site_type_symbol
 _atom_site_label
 _atom_site_symmetry_multiplicity
 _atom_site_fract_x
 _atom_site_fract_y
 _atom_site_fract_z
 _atom_site_occupancy
  Zr  Zr0  1  0.94841000  0.94841000  0.83330000  1
  Zr  Zr1  1  0.47178000  0.00002000  0.16953000  1
  Zr  Zr2  1  0.05679000  0.05679000  0.83330000  1
  Zr  Zr3  1  0.02460000  0.98050000  0.86987000  1
  Zr  Zr4  1  0.97930000  0.02555000  0.86828000  1
  Zr  Zr5  1  0.48842000  0.94361000  0.13285000  1
  Zr  Zr6  1  0.56609000  0.97711000  0.16768000  1
  Zr  Zr7  1  0.54851000  0.03262000  0.20410000  1
  Zr  Zr8  1  0.48976000  0.94365000  0.20447000  1
  Zr  Zr9  1  0.54735000  0.03288000  0.13275000  1
  Zr  Zr10  1  0.00002000  0.47178000  0.49713700  1
  Zr  Zr11  1  0.98050000  0.02460000  0.79679700  1
  Zr  Zr12  1  0.02555000  0.97930000  0.79838700  1
  Zr  Zr13  1  0.94361000  0.48842000  0.53381700  1
  Zr  Zr14  1  0.97711000  0.56609000  0.49898700  1
  Zr  Zr15  1  0.03262000  0.54851000  0.46256700  1
  Zr  Zr16  1  0.94365000  0.48976000  0.46219700  1
  Zr  Zr17  1  0.03288000  0.54735000  0.53391700  1
  Zr  Zr18  1  0.00000000  0.05159000  0.16663000  1
  Zr  Zr19  1  0.05159000  0.00000000  0.49997000  1
  Zr  Zr20  1  0.52824000  0.52822000  0.50286300  1
  Zr  Zr21  1  0.99998000  0.47176000  0.83619700  1
  Zr  Zr22  1  0.52822000  0.52824000  0.16380300  1
  Zr  Zr23  1  0.47176000  0.99998000  0.83047000  1
  Zr  Zr24  1  0.00000000  0.94321000  0.16663000  1
  Zr  Zr25  1  0.94321000  1.00000000  0.49997000  1
  Zr  Zr26  1  0.95590000  0.97540000  0.20320300  1
  Zr  Zr27  1  0.01950000  0.04410000  0.53653700  1
  Zr  Zr28  1  0.97540000  0.95590000  0.46346300  1
  Zr  Zr29  1  0.04410000  0.01950000  0.13013000  1
  Zr  Zr30  1  0.45519000  0.51158000  0.46618300  1
  Zr  Zr31  1  0.51158000  0.45519000  0.20048300  1
  Zr  Zr32  1  0.41102000  0.43391000  0.50101300  1
  Zr  Zr33  1  0.02289000  0.58898000  0.83434700  1
  Zr  Zr34  1  0.43391000  0.41102000  0.16565300  1
  Zr  Zr35  1  0.58898000  0.02289000  0.83232000  1
  Zr  Zr36  1  0.48411000  0.45149000  0.53743300  1
  Zr  Zr37  1  0.45149000  0.48411000  0.12923300  1
  Zr  Zr38  1  0.05635000  0.54611000  0.87113700  1
  Zr  Zr39  1  0.54611000  0.05635000  0.79553000  1
  Zr  Zr40  1  0.48553000  0.45265000  0.46608300  1
  Zr  Zr41  1  0.96712000  0.51447000  0.79941700  1
  Zr  Zr42  1  0.45265000  0.48553000  0.20058300  1
  Zr  Zr43  1  0.51447000  0.96712000  0.86725000  1
  Zr  Zr44  1  0.04625000  0.02070000  0.20161333  1
  Zr  Zr45  1  0.45389000  0.51024000  0.53780333  1
  Zr  Zr46  1  0.95375000  0.97445000  0.13172033  1
  Zr  Zr47  1  0.54481000  0.05639000  0.86715033  1
  Zr  Zr48  1  0.51589000  0.96738000  0.79590033  1
  Zr  Zr49  1  0.05639000  0.54481000  0.79951633  1
  Zr  Zr50  1  0.96738000  0.51589000  0.87076633  1
  Zr  Zr51  1  0.51024000  0.45389000  0.12886333  1
  Zr  Zr52  1  0.97445000  0.95375000  0.53494667  1
  Zr  Zr53  1  0.02070000  0.04625000  0.46505367  1
  P  P54  1  0.62264000  0.85298000  0.99764000  1
  P  P55  1  0.62420000  0.71595000  0.33447000  1
  P  P56  1  0.09975000  0.24502000  0.99967000  1
  P  P57  1  0.85298000  0.62264000  0.66902700  1
  P  P58  1  0.71595000  0.62420000  0.33219700  1
  P  P59  1  0.24502000  0.09975000  0.66699700  1
  P  P60  1  0.23034000  0.37736000  0.33097333  1
  P  P61  1  0.09175000  0.37580000  0.66780333  1
  P  P62  1  0.14527000  0.90025000  0.33300333  1
  P  P63  1  0.76966000  0.14702000  0.00236033  1
  P  P64  1  0.90825000  0.28405000  0.66553033  1
  P  P65  1  0.85473000  0.75498000  0.00033033  1
  P  P66  1  0.14702000  0.76966000  0.66430667  1
  P  P67  1  0.28405000  0.90825000  0.00113667  1
  P  P68  1  0.75498000  0.85473000  0.66633667  1
  P  P69  1  0.37736000  0.23034000  0.33569367  1
  P  P70  1  0.37580000  0.09175000  0.99886367  1
  P  P71  1  0.90025000  0.14527000  0.33366367  1
  H  H72  1  0.09800000  0.37370000  0.98930000  1
  H  H73  1  0.13580000  0.39340000  0.97830000  1
  H  H74  1  0.70390000  0.88470000  0.91360000  1
  H  H75  1  0.59630000  0.62010000  0.45490000  1
  H  H76  1  0.51080000  0.61950000  0.43120000  1
  H  H77  1  0.54380000  0.67210000  0.41010000  1
  H  H78  1  0.65160000  0.66750000  0.44300000  1
  H  H79  1  0.68460000  0.72000000  0.42200000  1
  H  H80  1  0.59910000  0.71950000  0.39830000  1
  H  H81  1  0.62430000  0.84370000  0.32160000  1
  H  H82  1  0.65970000  0.86540000  0.30660000  1
  H  H83  1  0.58410000  0.76310000  0.07800000  1
  H  H84  1  0.71040000  0.82900000  0.01540000  1
  H  H85  1  0.70350000  0.79120000  0.01250000  1
  H  H86  1  0.56620000  0.85740000  0.91130000  1
  H  H87  1  0.59550000  0.83180000  0.92910000  1
  H  H88  1  0.68410000  0.92060000  0.92180000  1
  H  H89  1  0.56630000  0.90690000  0.89300000  1
  H  H90  1  0.65490000  0.99570000  0.88560000  1
  H  H91  1  0.68420000  0.97010000  0.90350000  1
  H  H92  1  0.01280000  0.34980000  0.89810000  1
  H  H93  1  0.03180000  0.31630000  0.91900000  1
  H  H94  1  0.11850000  0.40110000  0.94120000  1
  H  H95  1  0.02170000  0.40540000  0.88600000  1
  H  H96  1  0.10830000  0.49020000  0.90810000  1
  H  H97  1  0.12730000  0.45660000  0.92900000  1
  H  H98  1  0.70710000  0.77290000  0.41810000  1
  H  H99  1  0.29280000  0.43040000  0.08090000  1
  H  H100  1  0.23890000  0.39930000  0.06160000  1
  H  H101  1  0.24110000  0.31230000  0.07350000  1
  H  H102  1  0.34190000  0.43230000  0.10190000  1
  H  H103  1  0.34420000  0.34540000  0.11380000  1
  H  H104  1  0.29030000  0.31430000  0.09450000  1
  H  H105  1  0.87180000  0.88500000  0.43220000  1
  H  H106  1  0.84670000  0.95680000  0.44890000  1
  H  H107  1  0.79290000  0.92230000  0.43040000  1
  H  H108  1  0.83090000  0.83240000  0.41050000  1
  H  H109  1  0.77710000  0.79790000  0.39200000  1
  H  H110  1  0.75200000  0.86970000  0.40870000  1
  H  H111  1  0.64190000  0.90280000  0.09860000  1
  H  H112  1  0.65310000  0.86410000  0.07640000  1
  H  H113  1  0.55230000  0.80140000  0.06490000  1
  H  H114  1  0.60160000  0.91880000  0.11510000  1
  H  H115  1  0.50080000  0.85610000  0.10360000  1
  H  H116  1  0.51200000  0.81740000  0.08140000  1
  H  H117  1  0.62570000  0.75450000  0.96970000  1
  H  H118  1  0.66110000  0.75520000  0.97090000  1
  H  H119  1  0.71700000  0.79800000  0.96800000  1
  H  H120  1  0.74430000  0.83390000  0.98000000  1
  H  H121  1  0.82170000  0.97030000  0.92070000  1
  H  H122  1  0.87480000  0.99210000  0.90000000  1
  H  H123  1  0.85500000  0.89640000  0.88480000  1
  H  H124  1  0.76800000  0.92210000  0.93460000  1
  H  H125  1  0.74820000  0.82640000  0.91940000  1
  H  H126  1  0.80130000  0.84810000  0.89870000  1
  H  H127  1  0.19510000  0.35440000  0.97670000  1
  H  H128  1  0.19240000  0.38820000  0.97860000  1
  H  H129  1  0.15630000  0.23380000  0.06850000  1
  H  H130  1  0.07960000  0.25350000  0.07970000  1
  H  H131  1  0.04660000  0.19980000  0.09910000  1
  H  H132  1  0.14950000  0.17950000  0.08250000  1
  H  H133  1  0.11650000  0.12590000  0.10190000  1
  H  H134  1  0.03990000  0.14570000  0.11310000  1
  H  H135  1  0.18540000  0.29450000  0.08130000  1
  H  H136  1  0.06280000  0.29390000  0.91910000  1
  H  H137  1  0.65190000  0.73480000  0.01340000  1
  H  H138  1  0.61420000  0.71500000  0.00180000  1
  H  H139  1  0.53830000  0.69540000  0.05570000  1
  H  H140  1  0.63510000  0.71540000  0.06490000  1
  H  H141  1  0.61540000  0.66450000  0.08870000  1
  H  H142  1  0.49170000  0.64370000  0.07430000  1
  H  H143  1  0.47200000  0.59280000  0.09800000  1
  H  H144  1  0.56880000  0.61280000  0.10730000  1
  H  H145  1  0.11220000  0.34890000  0.02440000  1
  H  H146  1  0.14620000  0.38490000  0.02260000  1
  H  H147  1  0.68290000  0.85920000  0.34470000  1
  H  H148  1  0.64780000  0.82890000  0.35480000  1
  H  H149  1  0.58430000  0.76280000  0.25190000  1
  H  H150  1  0.54550000  0.69700000  0.27220000  1
  H  H151  1  0.64180000  0.72080000  0.25430000  1
  H  H152  1  0.62120000  0.66900000  0.23180000  1
  H  H153  1  0.49810000  0.64330000  0.25730000  1
  H  H154  1  0.47750000  0.59160000  0.23480000  1
  H  H155  1  0.57380000  0.61540000  0.21690000  1
  H  H156  1  0.71030000  0.85210000  0.30820000  1
  H  H157  1  0.71280000  0.81830000  0.30660000  1
  H  H158  1  0.22970000  0.38200000  0.01380000  1
  H  H159  1  0.20470000  0.39440000  0.02420000  1
  H  H160  1  0.75420000  0.84720000  0.34080000  1
  H  H161  1  0.73480000  0.86580000  0.35190000  1
  H  H162  1  0.51410000  0.82160000  0.25860000  1
  H  H163  1  0.50190000  0.85950000  0.23610000  1
  H  H164  1  0.60140000  0.91830000  0.21710000  1
  H  H165  1  0.55480000  0.80520000  0.27310000  1
  H  H166  1  0.65430000  0.86400000  0.25410000  1
  H  H167  1  0.64210000  0.90190000  0.23160000  1
  H  H168  1  0.00680000  0.18060000  0.91100000  1
  H  H169  1  0.02890000  0.23400000  0.93110000  1
  H  H170  1  0.12410000  0.24910000  0.92260000  1
  H  H171  1  0.01540000  0.13710000  0.89030000  1
  H  H172  1  0.11060000  0.15230000  0.88170000  1
  H  H173  1  0.13270000  0.20570000  0.90190000  1
  H  H174  1  0.37370000  0.09800000  0.67737000  1
  H  H175  1  0.39340000  0.13580000  0.68837000  1
  H  H176  1  0.88470000  0.70390000  0.75307000  1
  H  H177  1  0.62010000  0.59630000  0.21177000  1
  H  H178  1  0.61950000  0.51080000  0.23547000  1
  H  H179  1  0.67210000  0.54380000  0.25657000  1
  H  H180  1  0.66750000  0.65160000  0.22367000  1
  H  H181  1  0.72000000  0.68460000  0.24467000  1
  H  H182  1  0.71950000  0.59910000  0.26837000  1
  H  H183  1  0.84370000  0.62430000  0.34507000  1
  H  H184  1  0.86540000  0.65970000  0.36007000  1
  H  H185  1  0.76310000  0.58410000  0.58867000  1
  H  H186  1  0.82900000  0.71040000  0.65127000  1
  H  H187  1  0.79120000  0.70350000  0.65417000  1
  H  H188  1  0.85740000  0.56620000  0.75537000  1
  H  H189  1  0.83180000  0.59550000  0.73757000  1
  H  H190  1  0.92060000  0.68410000  0.74487000  1
  H  H191  1  0.90690000  0.56630000  0.77367000  1
  H  H192  1  0.99570000  0.65490000  0.78107000  1
  H  H193  1  0.97010000  0.68420000  0.76317000  1
  H  H194  1  0.34980000  0.01280000  0.76857000  1
  H  H195  1  0.31630000  0.03180000  0.74767000  1
  H  H196  1  0.40110000  0.11850000  0.72547000  1
  H  H197  1  0.40540000  0.02170000  0.78067000  1
  H  H198  1  0.49020000  0.10830000  0.75857000  1
  H  H199  1  0.45660000  0.12730000  0.73767000  1
  H  H200  1  0.77290000  0.70710000  0.24857000  1
  H  H201  1  0.43040000  0.29280000  0.58577000  1
  H  H202  1  0.39930000  0.23890000  0.60507000  1
  H  H203  1  0.31230000  0.24110000  0.59317000  1
  H  H204  1  0.43230000  0.34190000  0.56477000  1
  H  H205  1  0.34540000  0.34420000  0.55287000  1
  H  H206  1  0.31430000  0.29030000  0.57217000  1
  H  H207  1  0.88500000  0.87180000  0.23447000  1
  H  H208  1  0.95680000  0.84670000  0.21777000  1
  H  H209  1  0.92230000  0.79290000  0.23627000  1
  H  H210  1  0.83240000  0.83090000  0.25617000  1
  H  H211  1  0.79790000  0.77710000  0.27467000  1
  H  H212  1  0.86970000  0.75200000  0.25797000  1
  H  H213  1  0.90280000  0.64190000  0.56807000  1
  H  H214  1  0.86410000  0.65310000  0.59027000  1
  H  H215  1  0.80140000  0.55230000  0.60177000  1
  H  H216  1  0.91880000  0.60160000  0.55157000  1
  H  H217  1  0.85610000  0.50080000  0.56307000  1
  H  H218  1  0.81740000  0.51200000  0.58527000  1
  H  H219  1  0.75450000  0.62570000  0.69697000  1
  H  H220  1  0.75520000  0.66110000  0.69577000  1
  H  H221  1  0.79800000  0.71700000  0.69867000  1
  H  H222  1  0.83390000  0.74430000  0.68667000  1
  H  H223  1  0.97030000  0.82170000  0.74597000  1
  H  H224  1  0.99210000  0.87480000  0.76667000  1
  H  H225  1  0.89640000  0.85500000  0.78187000  1
  H  H226  1  0.92210000  0.76800000  0.73207000  1
  H  H227  1  0.82640000  0.74820000  0.74727000  1
  H  H228  1  0.84810000  0.80130000  0.76797000  1
  H  H229  1  0.35440000  0.19510000  0.68997000  1
  H  H230  1  0.38820000  0.19240000  0.68807000  1
  H  H231  1  0.23380000  0.15630000  0.59817000  1
  H  H232  1  0.25350000  0.07960000  0.58697000  1
  H  H233  1  0.19980000  0.04660000  0.56757000  1
  H  H234  1  0.17950000  0.14950000  0.58417000  1
  H  H235  1  0.12590000  0.11650000  0.56477000  1
  H  H236  1  0.14570000  0.03990000  0.55357000  1
  H  H237  1  0.29450000  0.18540000  0.58537000  1
  H  H238  1  0.29390000  0.06280000  0.74757000  1
  H  H239  1  0.73480000  0.65190000  0.65327000  1
  H  H240  1  0.71500000  0.61420000  0.66487000  1
  H  H241  1  0.69540000  0.53830000  0.61097000  1
  H  H242  1  0.71540000  0.63510000  0.60177000  1
  H  H243  1  0.66450000  0.61540000  0.57797000  1
  H  H244  1  0.64370000  0.49170000  0.59237000  1
  H  H245  1  0.59280000  0.47200000  0.56867000  1
  H  H246  1  0.61280000  0.56880000  0.55937000  1
  H  H247  1  0.34890000  0.11220000  0.64227000  1
  H  H248  1  0.38490000  0.14620000  0.64407000  1
  H  H249  1  0.85920000  0.68290000  0.32197000  1
  H  H250  1  0.82890000  0.64780000  0.31187000  1
  H  H251  1  0.76280000  0.58430000  0.41477000  1
  H  H252  1  0.69700000  0.54550000  0.39447000  1
  H  H253  1  0.72080000  0.64180000  0.41237000  1
  H  H254  1  0.66900000  0.62120000  0.43487000  1
  H  H255  1  0.64330000  0.49810000  0.40937000  1
  H  H256  1  0.59160000  0.47750000  0.43187000  1
  H  H257  1  0.61540000  0.57380000  0.44977000  1
  H  H258  1  0.85210000  0.71030000  0.35847000  1
  H  H259  1  0.81830000  0.71280000  0.36007000  1
  H  H260  1  0.38200000  0.22970000  0.65287000  1
  H  H261  1  0.39440000  0.20470000  0.64247000  1
  H  H262  1  0.84720000  0.75420000  0.32587000  1
  H  H263  1  0.86580000  0.73480000  0.31477000  1
  H  H264  1  0.82160000  0.51410000  0.40807000  1
  H  H265  1  0.85950000  0.50190000  0.43057000  1
  H  H266  1  0.91830000  0.60140000  0.44957000  1
  H  H267  1  0.80520000  0.55480000  0.39357000  1
  H  H268  1  0.86400000  0.65430000  0.41257000  1
  H  H269  1  0.90190000  0.64210000  0.43507000  1
  H  H270  1  0.18060000  0.00680000  0.75567000  1
  H  H271  1  0.23400000  0.02890000  0.73557000  1
  H  H272  1  0.24910000  0.12410000  0.74407000  1
  H  H273  1  0.13710000  0.01540000  0.77637000  1
  H  H274  1  0.15230000  0.11060000  0.78497000  1
  H  H275  1  0.20570000  0.13270000  0.76477000  1
  H  H276  1  0.27570000  0.90200000  0.32263333  1
  H  H277  1  0.25760000  0.86420000  0.31163333  1
  H  H278  1  0.18080000  0.29610000  0.24693333  1
  H  H279  1  0.02380000  0.40370000  0.78823333  1
  H  H280  1  0.10870000  0.48920000  0.76453333  1
  H  H281  1  0.12830000  0.45620000  0.74343333  1
  H  H282  1  0.01590000  0.34840000  0.77633333  1
  H  H283  1  0.03540000  0.31540000  0.75533333  1
  H  H284  1  0.12040000  0.40090000  0.73163333  1
  H  H285  1  0.21940000  0.37570000  0.65493333  1
  H  H286  1  0.20570000  0.34030000  0.63993333  1
  H  H287  1  0.17900000  0.41590000  0.41133333  1
  H  H288  1  0.11860000  0.28960000  0.34873333  1
  H  H289  1  0.08770000  0.29650000  0.34583333  1
  H  H290  1  0.29120000  0.43380000  0.24463333  1
  H  H291  1  0.23630000  0.40450000  0.26243333  1
  H  H292  1  0.23650000  0.31590000  0.25513333  1
  H  H293  1  0.34060000  0.43370000  0.22633333  1
  H  H294  1  0.34080000  0.34510000  0.21893333  1
  H  H295  1  0.28590000  0.31580000  0.23683333  1
  H  H296  1  0.33700000  0.98720000  0.23143333  1
  H  H297  1  0.28450000  0.96820000  0.25233333  1
  H  H298  1  0.28260000  0.88150000  0.27453333  1
  H  H299  1  0.38370000  0.97830000  0.21933333  1
  H  H300  1  0.38190000  0.89170000  0.24143333  1
  H  H301  1  0.32930000  0.87270000  0.26233333  1
  H  H302  1  0.06580000  0.29290000  0.75143333  1
  H  H303  1  0.13760000  0.70720000  0.41423333  1
  H  H304  1  0.16040000  0.76110000  0.39493333  1
  H  H305  1  0.07120000  0.75890000  0.40683333  1
  H  H306  1  0.09040000  0.65810000  0.43523333  1
  H  H307  1  0.00120000  0.65580000  0.44713333  1
  H  H308  1  0.02400000  0.70970000  0.42783333  1
  H  H309  1  0.01320000  0.12820000  0.76553333  1
  H  H310  1  0.11010000  0.15330000  0.78223333  1
  H  H311  1  0.12940000  0.20710000  0.76373333  1
  H  H312  1  0.00150000  0.16910000  0.74383333  1
  H  H313  1  0.02080000  0.22290000  0.72533333  1
  H  H314  1  0.11770000  0.24800000  0.74203333  1
  H  H315  1  0.26090000  0.35810000  0.43193333  1
  H  H316  1  0.21100000  0.34690000  0.40973333  1
  H  H317  1  0.24910000  0.44770000  0.39823333  1
  H  H318  1  0.31720000  0.39840000  0.44843333  1
  H  H319  1  0.35530000  0.49920000  0.43693333  1
  H  H320  1  0.30540000  0.48800000  0.41473333  1
  H  H321  1  0.12880000  0.37430000  0.30303333  1
  H  H322  1  0.09410000  0.33890000  0.30423333  1
  H  H323  1  0.08100000  0.28300000  0.30133333  1
  H  H324  1  0.08960000  0.25570000  0.31333333  1
  H  H325  1  0.14860000  0.17830000  0.25403333  1
  H  H326  1  0.11730000  0.12520000  0.23333333  1
  H  H327  1  0.04140000  0.14500000  0.21813333  1
  H  H328  1  0.15410000  0.23200000  0.26793333  1
  H  H329  1  0.07820000  0.25180000  0.25273333  1
  H  H330  1  0.04680000  0.19870000  0.23203333  1
  H  H331  1  0.15930000  0.80490000  0.31003333  1
  H  H332  1  0.19580000  0.80760000  0.31193333  1
  H  H333  1  0.07750000  0.84370000  0.40183333  1
  H  H334  1  0.17390000  0.92040000  0.41303333  1
  H  H335  1  0.15320000  0.95340000  0.43243333  1
  H  H336  1  0.03000000  0.85050000  0.41583333  1
  H  H337  1  0.00940000  0.88350000  0.43523333  1
  H  H338  1  0.10580000  0.96010000  0.44643333  1
  H  H339  1  0.10910000  0.81460000  0.41463333  1
  H  H340  1  0.23110000  0.93720000  0.25243333  1
  H  H341  1  0.08290000  0.34810000  0.34673333  1
  H  H342  1  0.10080000  0.38580000  0.33513333  1
  H  H343  1  0.15710000  0.46170000  0.38903333  1
  H  H344  1  0.08030000  0.36490000  0.39823333  1
  H  H345  1  0.04910000  0.38460000  0.42203333  1
  H  H346  1  0.15200000  0.50830000  0.40763333  1
  H  H347  1  0.12080000  0.52800000  0.43133333  1
  H  H348  1  0.04400000  0.43120000  0.44063333  1
  H  H349  1  0.23670000  0.88780000  0.35773333  1
  H  H350  1  0.23870000  0.85380000  0.35593333  1
  H  H351  1  0.17630000  0.31710000  0.67803333  1
  H  H352  1  0.18110000  0.35220000  0.68813333  1
  H  H353  1  0.17850000  0.41570000  0.58523333  1
  H  H354  1  0.15150000  0.45450000  0.60553333  1
  H  H355  1  0.07900000  0.35820000  0.58763333  1
  H  H356  1  0.04780000  0.37880000  0.56513333  1
  H  H357  1  0.14520000  0.50190000  0.59063333  1
  H  H358  1  0.11410000  0.52250000  0.56813333  1
  H  H359  1  0.04160000  0.42620000  0.55023333  1
  H  H360  1  0.14180000  0.28970000  0.64153333  1
  H  H361  1  0.10550000  0.28720000  0.63993333  1
  H  H362  1  0.15230000  0.77030000  0.34713333  1
  H  H363  1  0.18970000  0.79530000  0.35753333  1
  H  H364  1  0.09300000  0.24580000  0.67413333  1
  H  H365  1  0.13100000  0.26520000  0.68523333  1
  H  H366  1  0.30750000  0.48590000  0.59193333  1
  H  H367  1  0.35760000  0.49810000  0.56943333  1
  H  H368  1  0.31690000  0.39860000  0.55043333  1
  H  H369  1  0.25040000  0.44520000  0.60643333  1
  H  H370  1  0.20970000  0.34570000  0.58743333  1
  H  H371  1  0.25980000  0.35790000  0.56493333  1
  H  H372  1  0.17380000  0.99320000  0.24433333  1
  H  H373  1  0.20510000  0.97110000  0.26443333  1
  H  H374  1  0.12500000  0.87590000  0.25593333  1
  H  H375  1  0.12170000  0.98460000  0.22363333  1
  H  H376  1  0.04170000  0.88940000  0.21503333  1
  H  H377  1  0.07300000  0.86730000  0.23523333  1
  H  H378  1  0.72430000  0.62630000  0.01070333  1
  H  H379  1  0.74240000  0.60660000  0.02170333  1
  H  H380  1  0.81920000  0.11530000  0.08640333  1
  H  H381  1  0.97620000  0.37990000  0.54510333  1
  H  H382  1  0.89130000  0.38050000  0.56880333  1
  H  H383  1  0.87170000  0.32790000  0.58990333  1
  H  H384  1  0.98410000  0.33250000  0.55700333  1
  H  H385  1  0.96460000  0.28000000  0.57800333  1
  H  H386  1  0.87960000  0.28050000  0.60170333  1
  H  H387  1  0.78060000  0.15630000  0.67840333  1
  H  H388  1  0.79430000  0.13460000  0.69340333  1
  H  H389  1  0.82100000  0.23690000  0.92200333  1
  H  H390  1  0.88140000  0.17100000  0.98460333  1
  H  H391  1  0.91230000  0.20880000  0.98750333  1
  H  H392  1  0.70880000  0.14260000  0.08870333  1
  H  H393  1  0.76370000  0.16820000  0.07090333  1
  H  H394  1  0.76350000  0.07940000  0.07820333  1
  H  H395  1  0.65940000  0.09310000  0.10700333  1
  H  H396  1  0.65920000  0.00430000  0.11440333  1
  H  H397  1  0.71410000  0.02990000  0.09650333  1
  H  H398  1  0.66300000  0.65020000  0.10190333  1
  H  H399  1  0.71550000  0.68370000  0.08100333  1
  H  H400  1  0.71740000  0.59890000  0.05880333  1
  H  H401  1  0.61630000  0.59460000  0.11400333  1
  H  H402  1  0.61810000  0.50980000  0.09190333  1
  H  H403  1  0.67070000  0.54340000  0.07100333  1
  H  H404  1  0.93420000  0.22710000  0.58190333  1
  H  H405  1  0.86240000  0.56960000  0.91910333  1
  H  H406  1  0.83960000  0.60070000  0.93840333  1
  H  H407  1  0.92880000  0.68770000  0.92650333  1
  H  H408  1  0.90960000  0.56770000  0.89810333  1
  H  H409  1  0.99880000  0.65460000  0.88620333  1
  H  H410  1  0.97600000  0.68570000  0.90550333  1
  H  H411  1  0.98680000  0.11500000  0.56780333  1
  H  H412  1  0.88990000  0.04320000  0.55110333  1
  H  H413  1  0.87060000  0.07770000  0.56960333  1
  H  H414  1  0.99850000  0.16760000  0.58950333  1
  H  H415  1  0.97920000  0.20210000  0.60800333  1
  H  H416  1  0.88230000  0.13030000  0.59130333  1
  H  H417  1  0.73910000  0.09720000  0.90140333  1
  H  H418  1  0.78900000  0.13590000  0.92360333  1
  H  H419  1  0.75090000  0.19860000  0.93510333  1
  H  H420  1  0.68280000  0.08120000  0.88490333  1
  H  H421  1  0.64470000  0.14390000  0.89640333  1
  H  H422  1  0.69460000  0.18260000  0.91860333  1
  H  H423  1  0.87120000  0.24550000  0.03030333  1
  H  H424  1  0.90590000  0.24480000  0.02910333  1
  H  H425  1  0.91900000  0.20200000  0.03200333  1
  H  H426  1  0.91040000  0.16610000  0.02000333  1
  H  H427  1  0.85140000  0.02970000  0.07930333  1
  H  H428  1  0.88270000  0.00790000  0.10000333  1
  H  H429  1  0.95860000  0.10360000  0.11520333  1
  H  H430  1  0.84590000  0.07790000  0.06540333  1
  H  H431  1  0.92180000  0.17360000  0.08060333  1
  H  H432  1  0.95320000  0.15190000  0.10130333  1
  H  H433  1  0.84070000  0.64560000  0.02330333  1
  H  H434  1  0.80420000  0.61180000  0.02140333  1
  H  H435  1  0.92250000  0.76620000  0.93150333  1
  H  H436  1  0.82610000  0.74650000  0.92030333  1
  H  H437  1  0.84680000  0.80020000  0.90090333  1
  H  H438  1  0.97000000  0.82050000  0.91750333  1
  H  H439  1  0.99060000  0.87410000  0.89810333  1
  H  H440  1  0.89420000  0.85430000  0.88690333  1
  H  H441  1  0.89090000  0.70550000  0.91870333  1
  H  H442  1  0.76890000  0.70610000  0.08090333  1
  H  H443  1  0.91710000  0.26520000  0.98660333  1
  H  H444  1  0.89920000  0.28500000  0.99820333  1
  H  H445  1  0.84290000  0.30460000  0.94430333  1
  H  H446  1  0.91970000  0.28460000  0.93510333  1
  H  H447  1  0.95090000  0.33550000  0.91130333  1
  H  H448  1  0.84800000  0.35630000  0.92570333  1
  H  H449  1  0.87920000  0.40720000  0.90200333  1
  H  H450  1  0.95600000  0.38720000  0.89270333  1
  H  H451  1  0.76330000  0.65110000  0.97560333  1
  H  H452  1  0.76130000  0.61510000  0.97740333  1
  H  H453  1  0.82370000  0.14080000  0.65530333  1
  H  H454  1  0.81890000  0.17110000  0.64520333  1
  H  H455  1  0.82150000  0.23720000  0.74810333  1
  H  H456  1  0.84850000  0.30300000  0.72780333  1
  H  H457  1  0.92100000  0.27920000  0.74570333  1
  H  H458  1  0.95220000  0.33100000  0.76820333  1
  H  H459  1  0.85480000  0.35670000  0.74270333  1
  H  H460  1  0.88590000  0.40840000  0.76520333  1
  H  H461  1  0.95840000  0.38460000  0.78310333  1
  H  H462  1  0.85820000  0.14790000  0.69180333  1
  H  H463  1  0.89450000  0.18170000  0.69340333  1
  H  H464  1  0.84770000  0.61800000  0.98620333  1
  H  H465  1  0.81030000  0.60560000  0.97580333  1
  H  H466  1  0.90700000  0.15280000  0.65920333  1
  H  H467  1  0.86900000  0.13420000  0.64810333  1
  H  H468  1  0.69250000  0.17840000  0.74140333  1
  H  H469  1  0.64240000  0.14050000  0.76390333  1
  H  H470  1  0.68310000  0.08170000  0.78290333  1
  H  H471  1  0.74960000  0.19480000  0.72690333  1
  H  H472  1  0.79030000  0.13600000  0.74590333  1
  H  H473  1  0.74020000  0.09810000  0.76840333  1
  H  H474  1  0.82620000  0.81940000  0.08900333  1
  H  H475  1  0.79490000  0.76600000  0.06890333  1
  H  H476  1  0.87500000  0.75090000  0.07740333  1
  H  H477  1  0.87830000  0.86290000  0.10970333  1
  H  H478  1  0.95830000  0.84770000  0.11830333  1
  H  H479  1  0.92700000  0.79430000  0.09810333  1
  H  H480  1  0.62630000  0.72430000  0.65596667  1
  H  H481  1  0.60660000  0.74240000  0.64496667  1
  H  H482  1  0.11530000  0.81920000  0.58026667  1
  H  H483  1  0.37990000  0.97620000  0.12156667  1
  H  H484  1  0.38050000  0.89130000  0.09786667  1
  H  H485  1  0.32790000  0.87170000  0.07676667  1
  H  H486  1  0.33250000  0.98410000  0.10966667  1
  H  H487  1  0.28000000  0.96460000  0.08866667  1
  H  H488  1  0.28050000  0.87960000  0.06496667  1
  H  H489  1  0.15630000  0.78060000  0.98826667  1
  H  H490  1  0.13460000  0.79430000  0.97326667  1
  H  H491  1  0.23690000  0.82100000  0.74466667  1
  H  H492  1  0.17100000  0.88140000  0.68206667  1
  H  H493  1  0.20880000  0.91230000  0.67916667  1
  H  H494  1  0.14260000  0.70880000  0.57796667  1
  H  H495  1  0.16820000  0.76370000  0.59576667  1
  H  H496  1  0.07940000  0.76350000  0.58846667  1
  H  H497  1  0.09310000  0.65940000  0.55966667  1
  H  H498  1  0.00430000  0.65920000  0.55226667  1
  H  H499  1  0.02990000  0.71410000  0.57016667  1
  H  H500  1  0.65020000  0.66300000  0.56476667  1
  H  H501  1  0.68370000  0.71550000  0.58566667  1
  H  H502  1  0.59890000  0.71740000  0.60786667  1
  H  H503  1  0.59460000  0.61630000  0.55266667  1
  H  H504  1  0.50980000  0.61810000  0.57476667  1
  H  H505  1  0.54340000  0.67070000  0.59566667  1
  H  H506  1  0.22710000  0.93420000  0.08476667  1
  H  H507  1  0.56960000  0.86240000  0.74756667  1
  H  H508  1  0.60070000  0.83960000  0.72826667  1
  H  H509  1  0.68770000  0.92880000  0.74016667  1
  H  H510  1  0.56770000  0.90960000  0.76856667  1
  H  H511  1  0.65460000  0.99880000  0.78046667  1
  H  H512  1  0.68570000  0.97600000  0.76116667  1
  H  H513  1  0.11500000  0.98680000  0.09886667  1
  H  H514  1  0.04320000  0.88990000  0.11556667  1
  H  H515  1  0.07770000  0.87060000  0.09706667  1
  H  H516  1  0.16760000  0.99850000  0.07716667  1
  H  H517  1  0.20210000  0.97920000  0.05866667  1
  H  H518  1  0.13030000  0.88230000  0.07536667  1
  H  H519  1  0.09720000  0.73910000  0.76526667  1
  H  H520  1  0.13590000  0.78900000  0.74306667  1
  H  H521  1  0.19860000  0.75090000  0.73156667  1
  H  H522  1  0.08120000  0.68280000  0.78176667  1
  H  H523  1  0.14390000  0.64470000  0.77026667  1
  H  H524  1  0.18260000  0.69460000  0.74806667  1
  H  H525  1  0.24550000  0.87120000  0.63636667  1
  H  H526  1  0.24480000  0.90590000  0.63756667  1
  H  H527  1  0.20200000  0.91900000  0.63466667  1
  H  H528  1  0.16610000  0.91040000  0.64666667  1
  H  H529  1  0.02970000  0.85140000  0.58736667  1
  H  H530  1  0.00790000  0.88270000  0.56666667  1
  H  H531  1  0.10360000  0.95860000  0.55146667  1
  H  H532  1  0.07790000  0.84590000  0.60126667  1
  H  H533  1  0.17360000  0.92180000  0.58606667  1
  H  H534  1  0.15190000  0.95320000  0.56536667  1
  H  H535  1  0.64560000  0.84070000  0.64336667  1
  H  H536  1  0.61180000  0.80420000  0.64526667  1
  H  H537  1  0.76620000  0.92250000  0.73516667  1
  H  H538  1  0.74650000  0.82610000  0.74636667  1
  H  H539  1  0.80020000  0.84680000  0.76576667  1
  H  H540  1  0.82050000  0.97000000  0.74916667  1
  H  H541  1  0.87410000  0.99060000  0.76856667  1
  H  H542  1  0.85430000  0.89420000  0.77976667  1
  H  H543  1  0.70550000  0.89090000  0.74796667  1
  H  H544  1  0.70610000  0.76890000  0.58576667  1
  H  H545  1  0.26520000  0.91710000  0.68006667  1
  H  H546  1  0.28500000  0.89920000  0.66846667  1
  H  H547  1  0.30460000  0.84290000  0.72236667  1
  H  H548  1  0.28460000  0.91970000  0.73156667  1
  H  H549  1  0.33550000  0.95090000  0.75536667  1
  H  H550  1  0.35630000  0.84800000  0.74096667  1
  H  H551  1  0.40720000  0.87920000  0.76466667  1
  H  H552  1  0.38720000  0.95600000  0.77396667  1
  H  H553  1  0.65110000  0.76330000  0.69106667  1
  H  H554  1  0.61510000  0.76130000  0.68926667  1
  H  H555  1  0.14080000  0.82370000  0.01136667  1
  H  H556  1  0.17110000  0.81890000  0.02146667  1
  H  H557  1  0.23720000  0.82150000  0.91856667  1
  H  H558  1  0.30300000  0.84850000  0.93886667  1
  H  H559  1  0.27920000  0.92100000  0.92096667  1
  H  H560  1  0.33100000  0.95220000  0.89846667  1
  H  H561  1  0.35670000  0.85480000  0.92396667  1
  H  H562  1  0.40840000  0.88590000  0.90146667  1
  H  H563  1  0.38460000  0.95840000  0.88356667  1
  H  H564  1  0.14790000  0.85820000  0.97486667  1
  H  H565  1  0.18170000  0.89450000  0.97326667  1
  H  H566  1  0.61800000  0.84770000  0.68046667  1
  H  H567  1  0.60560000  0.81030000  0.69086667  1
  H  H568  1  0.15280000  0.90700000  0.00746667  1
  H  H569  1  0.13420000  0.86900000  0.01856667  1
  H  H570  1  0.17840000  0.69250000  0.92526667  1
  H  H571  1  0.14050000  0.64240000  0.90276667  1
  H  H572  1  0.08170000  0.68310000  0.88376667  1
  H  H573  1  0.19480000  0.74960000  0.93976667  1
  H  H574  1  0.13600000  0.79030000  0.92076667  1
  H  H575  1  0.09810000  0.74020000  0.89826667  1
  H  H576  1  0.81940000  0.82620000  0.57766667  1
  H  H577  1  0.76600000  0.79490000  0.59776667  1
  H  H578  1  0.75090000  0.87500000  0.58926667  1
  H  H579  1  0.86290000  0.87830000  0.55696667  1
  H  H580  1  0.84770000  0.95830000  0.54836667  1
  H  H581  1  0.79430000  0.92700000  0.56856667  1
  H  H582  1  0.90200000  0.27570000  0.34403667  1
  H  H583  1  0.86420000  0.25760000  0.35503667  1
  H  H584  1  0.29610000  0.18080000  0.41973667  1
  H  H585  1  0.40370000  0.02380000  0.87843667  1
  H  H586  1  0.48920000  0.10870000  0.90213667  1
  H  H587  1  0.45620000  0.12830000  0.92323667  1
  H  H588  1  0.34840000  0.01590000  0.89033667  1
  H  H589  1  0.31540000  0.03540000  0.91133667  1
  H  H590  1  0.40090000  0.12040000  0.93503667  1
  H  H591  1  0.37570000  0.21940000  0.01173667  1
  H  H592  1  0.34030000  0.20570000  0.02673667  1
  H  H593  1  0.41590000  0.17900000  0.25533667  1
  H  H594  1  0.28960000  0.11860000  0.31793667  1
  H  H595  1  0.29650000  0.08770000  0.32083667  1
  H  H596  1  0.43380000  0.29120000  0.42203667  1
  H  H597  1  0.40450000  0.23630000  0.40423667  1
  H  H598  1  0.31590000  0.23650000  0.41153667  1
  H  H599  1  0.43370000  0.34060000  0.44033667  1
  H  H600  1  0.34510000  0.34080000  0.44773667  1
  H  H601  1  0.31580000  0.28590000  0.42983667  1
  H  H602  1  0.98720000  0.33700000  0.43523667  1
  H  H603  1  0.96820000  0.28450000  0.41433667  1
  H  H604  1  0.88150000  0.28260000  0.39213667  1
  H  H605  1  0.97830000  0.38370000  0.44733667  1
  H  H606  1  0.89170000  0.38190000  0.42523667  1
  H  H607  1  0.87270000  0.32930000  0.40433667  1
  H  H608  1  0.29290000  0.06580000  0.91523667  1
  H  H609  1  0.70720000  0.13760000  0.25243667  1
  H  H610  1  0.76110000  0.16040000  0.27173667  1
  H  H611  1  0.75890000  0.07120000  0.25983667  1
  H  H612  1  0.65810000  0.09040000  0.23143667  1
  H  H613  1  0.65580000  0.00120000  0.21953667  1
  H  H614  1  0.70970000  0.02400000  0.23883667  1
  H  H615  1  0.12820000  0.01320000  0.90113667  1
  H  H616  1  0.15330000  0.11010000  0.88443667  1
  H  H617  1  0.20710000  0.12940000  0.90293667  1
  H  H618  1  0.16910000  0.00150000  0.92283667  1
  H  H619  1  0.22290000  0.02080000  0.94133667  1
  H  H620  1  0.24800000  0.11770000  0.92463667  1
  H  H621  1  0.35810000  0.26090000  0.23473667  1
  H  H622  1  0.34690000  0.21100000  0.25693667  1
  H  H623  1  0.44770000  0.24910000  0.26843667  1
  H  H624  1  0.39840000  0.31720000  0.21823667  1
  H  H625  1  0.49920000  0.35530000  0.22973667  1
  H  H626  1  0.48800000  0.30540000  0.25193667  1
  H  H627  1  0.37430000  0.12880000  0.36363667  1
  H  H628  1  0.33890000  0.09410000  0.36243667  1
  H  H629  1  0.28300000  0.08100000  0.36533667  1
  H  H630  1  0.25570000  0.08960000  0.35333667  1
  H  H631  1  0.17830000  0.14860000  0.41263667  1
  H  H632  1  0.12520000  0.11730000  0.43333667  1
  H  H633  1  0.14500000  0.04140000  0.44853667  1
  H  H634  1  0.23200000  0.15410000  0.39873667  1
  H  H635  1  0.25180000  0.07820000  0.41393667  1
  H  H636  1  0.19870000  0.04680000  0.43463667  1
  H  H637  1  0.80490000  0.15930000  0.35663667  1
  H  H638  1  0.80760000  0.19580000  0.35473667  1
  H  H639  1  0.84370000  0.07750000  0.26483667  1
  H  H640  1  0.92040000  0.17390000  0.25363667  1
  H  H641  1  0.95340000  0.15320000  0.23423667  1
  H  H642  1  0.85050000  0.03000000  0.25083667  1
  H  H643  1  0.88350000  0.00940000  0.23143667  1
  H  H644  1  0.96010000  0.10580000  0.22023667  1
  H  H645  1  0.81460000  0.10910000  0.25203667  1
  H  H646  1  0.93720000  0.23110000  0.41423667  1
  H  H647  1  0.34810000  0.08290000  0.31993667  1
  H  H648  1  0.38580000  0.10080000  0.33153667  1
  H  H649  1  0.46170000  0.15710000  0.27763667  1
  H  H650  1  0.36490000  0.08030000  0.26843667  1
  H  H651  1  0.38460000  0.04910000  0.24463667  1
  H  H652  1  0.50830000  0.15200000  0.25903667  1
  H  H653  1  0.52800000  0.12080000  0.23533667  1
  H  H654  1  0.43120000  0.04400000  0.22603667  1
  H  H655  1  0.88780000  0.23670000  0.30893667  1
  H  H656  1  0.85380000  0.23870000  0.31073667  1
  H  H657  1  0.31710000  0.17630000  0.98863667  1
  H  H658  1  0.35220000  0.18110000  0.97853667  1
  H  H659  1  0.41570000  0.17850000  0.08143667  1
  H  H660  1  0.45450000  0.15150000  0.06113667  1
  H  H661  1  0.35820000  0.07900000  0.07903667  1
  H  H662  1  0.37880000  0.04780000  0.10153667  1
  H  H663  1  0.50190000  0.14520000  0.07603667  1
  H  H664  1  0.52250000  0.11410000  0.09853667  1
  H  H665  1  0.42620000  0.04160000  0.11643667  1
  H  H666  1  0.28970000  0.14180000  0.02513667  1
  H  H667  1  0.28720000  0.10550000  0.02673667  1
  H  H668  1  0.77030000  0.15230000  0.31953667  1
  H  H669  1  0.79530000  0.18970000  0.30913667  1
  H  H670  1  0.24580000  0.09300000  0.99253667  1
  H  H671  1  0.26520000  0.13100000  0.98143667  1
  H  H672  1  0.48590000  0.30750000  0.07473667  1
  H  H673  1  0.49810000  0.35760000  0.09723667  1
  H  H674  1  0.39860000  0.31690000  0.11623667  1
  H  H675  1  0.44520000  0.25040000  0.06023667  1
  H  H676  1  0.34570000  0.20970000  0.07923667  1
  H  H677  1  0.35790000  0.25980000  0.10173667  1
  H  H678  1  0.99320000  0.17380000  0.42233667  1
  H  H679  1  0.97110000  0.20510000  0.40223667  1
  H  H680  1  0.87590000  0.12500000  0.41073667  1
  H  H681  1  0.98460000  0.12170000  0.44303667  1
  H  H682  1  0.88940000  0.04170000  0.45163667  1
  H  H683  1  0.86730000  0.07300000  0.43143667  1
  C  C684  1  0.15090000  0.34600000  0.00050000  1
  C  C685  1  0.11820000  0.37190000  0.98590000  1
  C  C686  1  0.71622000  0.85775000  0.93955000  1
  C  C687  1  0.70422000  0.83522000  0.96139000  1
  C  C688  1  0.67185000  0.82455000  0.97194000  1
  C  C689  1  0.65146000  0.83638000  0.96064000  1
  C  C690  1  0.66346000  0.85891000  0.93880000  1
  C  C691  1  0.69583000  0.86959000  0.92825000  1
  C  C692  1  0.58577000  0.63048000  0.44590000  1
  C  C693  1  0.55027000  0.61458000  0.44511000  1
  C  C694  1  0.53456000  0.63018000  0.43171000  1
  C  C695  1  0.55434000  0.66166000  0.41910000  1
  C  C696  1  0.58983000  0.67755000  0.41989000  1
  C  C697  1  0.60555000  0.66196000  0.43329000  1
  C  C698  1  0.64104000  0.67785000  0.43408000  1
  C  C699  1  0.66082000  0.70933000  0.42147000  1
  C  C700  1  0.64510000  0.72491000  0.40807000  1
  C  C701  1  0.60961000  0.70903000  0.40727000  1
  C  C702  1  0.64480000  0.84380000  0.31550000  1
  C  C703  1  0.62346000  0.75756000  0.02473000  1
  C  C704  1  0.60347000  0.74708000  0.04807000  1
  C  C705  1  0.59750000  0.77013000  0.06239000  1
  C  C706  1  0.61154000  0.80369000  0.05336000  1
  C  C707  1  0.63154000  0.81418000  0.03002000  1
  C  C708  1  0.63750000  0.79112000  0.01570000  1
  C  C709  1  0.54240000  0.91400000  0.12660000  1
  C  C710  1  0.70170000  0.80930000  0.00340000  1
  C  C711  1  0.58980000  0.87002000  0.91338000  1
  C  C712  1  0.60738000  0.85471000  0.92408000  1
  C  C713  1  0.64270000  0.87367000  0.92722000  1
  C  C714  1  0.66044000  0.90793000  0.91965000  1
  C  C715  1  0.64286000  0.92324000  0.90895000  1
  C  C716  1  0.60755000  0.90429000  0.90581000  1
  C  C717  1  0.58997000  0.91960000  0.89511000  1
  C  C718  1  0.60771000  0.95387000  0.88754000  1
  C  C719  1  0.64303000  0.97282000  0.89068000  1
  C  C720  1  0.66061000  0.95751000  0.90138000  1
  C  C721  1  0.03401000  0.36014000  0.90677000  1
  C  C722  1  0.04540000  0.34005000  0.91929000  1
  C  C723  1  0.07704000  0.35540000  0.93217000  1
  C  C724  1  0.09730000  0.39085000  0.93253000  1
  C  C725  1  0.08591000  0.41094000  0.92001000  1
  C  C726  1  0.05426000  0.39559000  0.90713000  1
  C  C727  1  0.04287000  0.41568000  0.89461000  1
  C  C728  1  0.06313000  0.45113000  0.89497000  1
  C  C729  1  0.09478000  0.46649000  0.90786000  1
  C  C730  1  0.10617000  0.44640000  0.92037000  1
  C  C731  1  0.66653000  0.75893000  0.39334000  1
  C  C732  1  0.65599000  0.76757000  0.36958000  1
  C  C733  1  0.67904000  0.79606000  0.35472000  1
  C  C734  1  0.71261000  0.81589000  0.36361000  1
  C  C735  1  0.72315000  0.80724000  0.38737000  1
  C  C736  1  0.70010000  0.77875000  0.40224000  1
  C  C737  1  0.28246000  0.40672000  0.07945000  1
  C  C738  1  0.25015000  0.38807000  0.06786000  1
  C  C739  1  0.23467000  0.35270000  0.06565000  1
  C  C740  1  0.25150000  0.33598000  0.07502000  1
  C  C741  1  0.28381000  0.35463000  0.08661000  1
  C  C742  1  0.29929000  0.39000000  0.08883000  1
  C  C743  1  0.33159000  0.40864000  0.10041000  1
  C  C744  1  0.34843000  0.39193000  0.10979000  1
  C  C745  1  0.33295000  0.35655000  0.10757000  1
  C  C746  1  0.30064000  0.33790000  0.09598000  1
  C  C747  1  0.05630000  0.09640000  0.12200000  1
  C  C748  1  0.85601000  0.89249000  0.43179000  1
  C  C749  1  0.86463000  0.92437000  0.44236000  1
  C  C750  1  0.84098000  0.93555000  0.44182000  1
  C  C751  1  0.80870000  0.91483000  0.43073000  1
  C  C752  1  0.80008000  0.88295000  0.42017000  1
  C  C753  1  0.82373000  0.87177000  0.42070000  1
  C  C754  1  0.81511000  0.83989000  0.41014000  1
  C  C755  1  0.78283000  0.81917000  0.39904000  1
  C  C756  1  0.75917000  0.83034000  0.39851000  1
  C  C757  1  0.76780000  0.86223000  0.40907000  1
  C  C758  1  0.62393000  0.88246000  0.09185000  1
  C  C759  1  0.63063000  0.85926000  0.07855000  1
  C  C760  1  0.60378000  0.82890000  0.06846000  1
  C  C761  1  0.57022000  0.82172000  0.07167000  1
  C  C762  1  0.56352000  0.84492000  0.08497000  1
  C  C763  1  0.59037000  0.87528000  0.09506000  1
  C  C764  1  0.58367000  0.89848000  0.10836000  1
  C  C765  1  0.55011000  0.89130000  0.11157000  1
  C  C766  1  0.52326000  0.86094000  0.10148000  1
  C  C767  1  0.52996000  0.83774000  0.08818000  1
  C  C768  1  0.64490000  0.75880000  0.98130000  1
  C  C769  1  0.67460000  0.81340000  0.33230000  1
  C  C770  1  0.72000000  0.81830000  0.97730000  1
  C  C771  1  0.82835000  0.95547000  0.91348000  1
  C  C772  1  0.86016000  0.96850000  0.90112000  1
  C  C773  1  0.87013000  0.94634000  0.89036000  1
  C  C774  1  0.84829000  0.91116000  0.89196000  1
  C  C775  1  0.81649000  0.89815000  0.90432000  1
  C  C776  1  0.80652000  0.92030000  0.91508000  1
  C  C777  1  0.77471000  0.90728000  0.92745000  1
  C  C778  1  0.75288000  0.87211000  0.92905000  1
  C  C779  1  0.76285000  0.84995000  0.91829000  1
  C  C780  1  0.79465000  0.86297000  0.90593000  1
  C  C781  1  0.18880000  0.36790000  0.98810000  1
  C  C782  1  0.13428000  0.22692000  0.07461000  1
  C  C783  1  0.12121000  0.24892000  0.07218000  1
  C  C784  1  0.08836000  0.23877000  0.08136000  1
  C  C785  1  0.06858000  0.20663000  0.09297000  1
  C  C786  1  0.08165000  0.18464000  0.09540000  1
  C  C787  1  0.11449000  0.19478000  0.08622000  1
  C  C788  1  0.12756000  0.17278000  0.08866000  1
  C  C789  1  0.10778000  0.14065000  0.10026000  1
  C  C790  1  0.07493000  0.13050000  0.10944000  1
  C  C791  1  0.06186000  0.15249000  0.10701000  1
  C  C792  1  0.18775000  0.34444000  0.03279000  1
  C  C793  1  0.15440000  0.32443000  0.02346000  1
  C  C794  1  0.13268000  0.29322000  0.03579000  1
  C  C795  1  0.14431000  0.28203000  0.05744000  1
  C  C796  1  0.17766000  0.30205000  0.06677000  1
  C  C797  1  0.19938000  0.33326000  0.05444000  1
  C  C798  1  0.66250000  0.79640000  0.99410000  1
  C  C799  1  0.12327000  0.32415000  0.97717000  1
  C  C800  1  0.11027000  0.34426000  0.96738000  1
  C  C801  1  0.08762000  0.33292000  0.94561000  1
  C  C802  1  0.07797000  0.30147000  0.93363000  1
  C  C803  1  0.09100000  0.28140000  0.94343000  1
  C  C804  1  0.11362000  0.29270000  0.96519000  1
  C  C805  1  0.63350000  0.73740000  0.00570000  1
  C  C806  1  0.55375000  0.68917000  0.06232000  1
  C  C807  1  0.58862000  0.71039000  0.05797000  1
  C  C808  1  0.61173000  0.70116000  0.06786000  1
  C  C809  1  0.59997000  0.67070000  0.08208000  1
  C  C810  1  0.56510000  0.64947000  0.08643000  1
  C  C811  1  0.54199000  0.65871000  0.07655000  1
  C  C812  1  0.50712000  0.63748000  0.08089000  1
  C  C813  1  0.49535000  0.60701000  0.09512000  1
  C  C814  1  0.51847000  0.59779000  0.10500000  1
  C  C815  1  0.55334000  0.61901000  0.10065000  1
  C  C816  1  0.13100000  0.36420000  0.01270000  1
  C  C817  1  0.66320000  0.83760000  0.33940000  1
  C  C818  1  0.38310000  0.41110000  0.12170000  1
  C  C819  1  0.64531000  0.79290000  0.30960000  1
  C  C820  1  0.63144000  0.75950000  0.30024000  1
  C  C821  1  0.60858000  0.74824000  0.27861000  1
  C  C822  1  0.59959000  0.77037000  0.26635000  1
  C  C823  1  0.61350000  0.80382000  0.27571000  1
  C  C824  1  0.63631000  0.81503000  0.29734000  1
  C  C825  1  0.50500000  0.56250000  0.11780000  1
  C  C826  1  0.56068000  0.69138000  0.26412000  1
  C  C827  1  0.59571000  0.71401000  0.26551000  1
  C  C828  1  0.61837000  0.70562000  0.25340000  1
  C  C829  1  0.60600000  0.67460000  0.23988000  1
  C  C830  1  0.57097000  0.65197000  0.23849000  1
  C  C831  1  0.54831000  0.66036000  0.25061000  1
  C  C832  1  0.51327000  0.63772000  0.24922000  1
  C  C833  1  0.50090000  0.60670000  0.23571000  1
  C  C834  1  0.52356000  0.59831000  0.22359000  1
  C  C835  1  0.55860000  0.62095000  0.22498000  1
  C  C836  1  0.90100000  0.94740000  0.45360000  1
  C  C837  1  0.90290000  0.96130000  0.87630000  1
  C  C838  1  0.70820000  0.83270000  0.31840000  1
  C  C839  1  0.20590000  0.37560000  0.01570000  1
  C  C840  1  0.73190000  0.84440000  0.34470000  1
  C  C841  1  0.50900000  0.56550000  0.20710000  1
  C  C842  1  0.54210000  0.91490000  0.20920000  1
  C  C843  1  0.58990000  0.97080000  0.87450000  1
  C  C844  1  0.53158000  0.84099000  0.25031000  1
  C  C845  1  0.52428000  0.86366000  0.23683000  1
  C  C846  1  0.55040000  0.89258000  0.22438000  1
  C  C847  1  0.58386000  0.89888000  0.22541000  1
  C  C848  1  0.59116000  0.87621000  0.23889000  1
  C  C849  1  0.56502000  0.84726000  0.25134000  1
  C  C850  1  0.57231000  0.82459000  0.26481000  1
  C  C851  1  0.60580000  0.83091000  0.26584000  1
  C  C852  1  0.63189000  0.85980000  0.25340000  1
  C  C853  1  0.62460000  0.88248000  0.23992000  1
  C  C854  1  0.04810000  0.10060000  0.87770000  1
  C  C855  1  0.52958000  0.58088000  0.45923000  1
  C  C856  1  0.03032000  0.19435000  0.91329000  1
  C  C857  1  0.04360000  0.22636000  0.92538000  1
  C  C858  1  0.07870000  0.24685000  0.92887000  1
  C  C859  1  0.10058000  0.23539000  0.92027000  1
  C  C860  1  0.08732000  0.20340000  0.90817000  1
  C  C861  1  0.05219000  0.18288000  0.90469000  1
  C  C862  1  0.03893000  0.15090000  0.89259000  1
  C  C863  1  0.06080000  0.13942000  0.88399000  1
  C  C864  1  0.09594000  0.15995000  0.88748000  1
  C  C865  1  0.10920000  0.19194000  0.89957000  1
  C  C866  1  0.04850000  0.47270000  0.88330000  1
  C  C867  1  0.34600000  0.15090000  0.66616700  1
  C  C868  1  0.37190000  0.11820000  0.68076700  1
  C  C869  1  0.85775000  0.71622000  0.72711700  1
  C  C870  1  0.83522000  0.70422000  0.70527700  1
  C  C871  1  0.82455000  0.67185000  0.69472700  1
  C  C872  1  0.83638000  0.65146000  0.70602700  1
  C  C873  1  0.85891000  0.66346000  0.72786700  1
  C  C874  1  0.86959000  0.69583000  0.73841700  1
  C  C875  1  0.63048000  0.58577000  0.22076700  1
  C  C876  1  0.61458000  0.55027000  0.22155700  1
  C  C877  1  0.63018000  0.53456000  0.23495700  1
  C  C878  1  0.66166000  0.55434000  0.24756700  1
  C  C879  1  0.67755000  0.58983000  0.24677700  1
  C  C880  1  0.66196000  0.60555000  0.23337700  1
  C  C881  1  0.67785000  0.64104000  0.23258700  1
  C  C882  1  0.70933000  0.66082000  0.24519700  1
  C  C883  1  0.72491000  0.64510000  0.25859700  1
  C  C884  1  0.70903000  0.60961000  0.25939700  1
  C  C885  1  0.84380000  0.64480000  0.35116700  1
  C  C886  1  0.75756000  0.62346000  0.64193700  1
  C  C887  1  0.74708000  0.60347000  0.61859700  1
  C  C888  1  0.77013000  0.59750000  0.60427700  1
  C  C889  1  0.80369000  0.61154000  0.61330700  1
  C  C890  1  0.81418000  0.63154000  0.63664700  1
  C  C891  1  0.79112000  0.63750000  0.65096700  1
  C  C892  1  0.91400000  0.54240000  0.54006700  1
  C  C893  1  0.80930000  0.70170000  0.66326700  1
  C  C894  1  0.87002000  0.58980000  0.75328700  1
  C  C895  1  0.85471000  0.60738000  0.74258700  1
  C  C896  1  0.87367000  0.64270000  0.73944700  1
  C  C897  1  0.90793000  0.66044000  0.74701700  1
  C  C898  1  0.92324000  0.64286000  0.75771700  1
  C  C899  1  0.90429000  0.60755000  0.76085700  1
  C  C900  1  0.91960000  0.58997000  0.77155700  1
  C  C901  1  0.95387000  0.60771000  0.77912700  1
  C  C902  1  0.97282000  0.64303000  0.77598700  1
  C  C903  1  0.95751000  0.66061000  0.76528700  1
  C  C904  1  0.36014000  0.03401000  0.75989700  1
  C  C905  1  0.34005000  0.04540000  0.74737700  1
  C  C906  1  0.35540000  0.07704000  0.73449700  1
  C  C907  1  0.39085000  0.09730000  0.73413700  1
  C  C908  1  0.41094000  0.08591000  0.74665700  1
  C  C909  1  0.39559000  0.05426000  0.75953700  1
  C  C910  1  0.41568000  0.04287000  0.77205700  1
  C  C911  1  0.45113000  0.06313000  0.77169700  1
  C  C912  1  0.46649000  0.09478000  0.75880700  1
  C  C913  1  0.44640000  0.10617000  0.74629700  1
  C  C914  1  0.75893000  0.66653000  0.27332700  1
  C  C915  1  0.76757000  0.65599000  0.29708700  1
  C  C916  1  0.79606000  0.67904000  0.31194700  1
  C  C917  1  0.81589000  0.71261000  0.30305700  1
  C  C918  1  0.80724000  0.72315000  0.27929700  1
  C  C919  1  0.77875000  0.70010000  0.26442700  1
  C  C920  1  0.40672000  0.28246000  0.58721700  1
  C  C921  1  0.38807000  0.25015000  0.59880700  1
  C  C922  1  0.35270000  0.23467000  0.60101700  1
  C  C923  1  0.33598000  0.25150000  0.59164700  1
  C  C924  1  0.35463000  0.28381000  0.58005700  1
  C  C925  1  0.39000000  0.29929000  0.57783700  1
  C  C926  1  0.40864000  0.33159000  0.56625700  1
  C  C927  1  0.39193000  0.34843000  0.55687700  1
  C  C928  1  0.35655000  0.33295000  0.55909700  1
  C  C929  1  0.33790000  0.30064000  0.57068700  1
  C  C930  1  0.09640000  0.05630000  0.54466700  1
  C  C931  1  0.89249000  0.85601000  0.23487700  1
  C  C932  1  0.92437000  0.86463000  0.22430700  1
  C  C933  1  0.93555000  0.84098000  0.22484700  1
  C  C934  1  0.91483000  0.80870000  0.23593700  1
  C  C935  1  0.88295000  0.80008000  0.24649700  1
  C  C936  1  0.87177000  0.82373000  0.24596700  1
  C  C937  1  0.83989000  0.81511000  0.25652700  1
  C  C938  1  0.81917000  0.78283000  0.26762700  1
  C  C939  1  0.83034000  0.75917000  0.26815700  1
  C  C940  1  0.86223000  0.76780000  0.25759700  1
  C  C941  1  0.88246000  0.62393000  0.57481700  1
  C  C942  1  0.85926000  0.63063000  0.58811700  1
  C  C943  1  0.82890000  0.60378000  0.59820700  1
  C  C944  1  0.82172000  0.57022000  0.59499700  1
  C  C945  1  0.84492000  0.56352000  0.58169700  1
  C  C946  1  0.87528000  0.59037000  0.57160700  1
  C  C947  1  0.89848000  0.58367000  0.55830700  1
  C  C948  1  0.89130000  0.55011000  0.55509700  1
  C  C949  1  0.86094000  0.52326000  0.56518700  1
  C  C950  1  0.83774000  0.52996000  0.57848700  1
  C  C951  1  0.75880000  0.64490000  0.68536700  1
  C  C952  1  0.81340000  0.67460000  0.33436700  1
  C  C953  1  0.81830000  0.72000000  0.68936700  1
  C  C954  1  0.95547000  0.82835000  0.75318700  1
  C  C955  1  0.96850000  0.86016000  0.76554700  1
  C  C956  1  0.94634000  0.87013000  0.77630700  1
  C  C957  1  0.91116000  0.84829000  0.77470700  1
  C  C958  1  0.89815000  0.81649000  0.76234700  1
  C  C959  1  0.92030000  0.80652000  0.75158700  1
  C  C960  1  0.90728000  0.77471000  0.73921700  1
  C  C961  1  0.87211000  0.75288000  0.73761700  1
  C  C962  1  0.84995000  0.76285000  0.74837700  1
  C  C963  1  0.86297000  0.79465000  0.76073700  1
  C  C964  1  0.36790000  0.18880000  0.67856700  1
  C  C965  1  0.22692000  0.13428000  0.59205700  1
  C  C966  1  0.24892000  0.12121000  0.59448700  1
  C  C967  1  0.23877000  0.08836000  0.58530700  1
  C  C968  1  0.20663000  0.06858000  0.57369700  1
  C  C969  1  0.18464000  0.08165000  0.57126700  1
  C  C970  1  0.19478000  0.11449000  0.58044700  1
  C  C971  1  0.17278000  0.12756000  0.57800700  1
  C  C972  1  0.14065000  0.10778000  0.56640700  1
  C  C973  1  0.13050000  0.07493000  0.55722700  1
  C  C974  1  0.15249000  0.06186000  0.55965700  1
  C  C975  1  0.34444000  0.18775000  0.63387700  1
  C  C976  1  0.32443000  0.15440000  0.64320700  1
  C  C977  1  0.29322000  0.13268000  0.63087700  1
  C  C978  1  0.28203000  0.14431000  0.60922700  1
  C  C979  1  0.30205000  0.17766000  0.59989700  1
  C  C980  1  0.33326000  0.19938000  0.61222700  1
  C  C981  1  0.79640000  0.66250000  0.67256700  1
  C  C982  1  0.32415000  0.12327000  0.68949700  1
  C  C983  1  0.34426000  0.11027000  0.69928700  1
  C  C984  1  0.33292000  0.08762000  0.72105700  1
  C  C985  1  0.30147000  0.07797000  0.73303700  1
  C  C986  1  0.28140000  0.09100000  0.72323700  1
  C  C987  1  0.29270000  0.11362000  0.70147700  1
  C  C988  1  0.73740000  0.63350000  0.66096700  1
  C  C989  1  0.68917000  0.55375000  0.60434700  1
  C  C990  1  0.71039000  0.58862000  0.60869700  1
  C  C991  1  0.70116000  0.61173000  0.59880700  1
  C  C992  1  0.67070000  0.59997000  0.58458700  1
  C  C993  1  0.64947000  0.56510000  0.58023700  1
  C  C994  1  0.65871000  0.54199000  0.59011700  1
  C  C995  1  0.63748000  0.50712000  0.58577700  1
  C  C996  1  0.60701000  0.49535000  0.57154700  1
  C  C997  1  0.59779000  0.51847000  0.56166700  1
  C  C998  1  0.61901000  0.55334000  0.56601700  1
  C  C999  1  0.36420000  0.13100000  0.65396700  1
  C  C1000  1  0.83760000  0.66320000  0.32726700  1
  C  C1001  1  0.41110000  0.38310000  0.54496700  1
  C  C1002  1  0.79290000  0.64531000  0.35706700  1
  C  C1003  1  0.75950000  0.63144000  0.36642700  1
  C  C1004  1  0.74824000  0.60858000  0.38805700  1
  C  C1005  1  0.77037000  0.59959000  0.40031700  1
  C  C1006  1  0.80382000  0.61350000  0.39095700  1
  C  C1007  1  0.81503000  0.63631000  0.36932700  1
  C  C1008  1  0.56250000  0.50500000  0.54886700  1
  C  C1009  1  0.69138000  0.56068000  0.40254700  1
  C  C1010  1  0.71401000  0.59571000  0.40115700  1
  C  C1011  1  0.70562000  0.61837000  0.41326700  1
  C  C1012  1  0.67460000  0.60600000  0.42678700  1
  C  C1013  1  0.65197000  0.57097000  0.42817700  1
  C  C1014  1  0.66036000  0.54831000  0.41605700  1
  C  C1015  1  0.63772000  0.51327000  0.41744700  1
  C  C1016  1  0.60670000  0.50090000  0.43095700  1
  C  C1017  1  0.59831000  0.52356000  0.44307700  1
  C  C1018  1  0.62095000  0.55860000  0.44168700  1
  C  C1019  1  0.94740000  0.90100000  0.21306700  1
  C  C1020  1  0.96130000  0.90290000  0.79036700  1
  C  C1021  1  0.83270000  0.70820000  0.34826700  1
  C  C1022  1  0.37560000  0.20590000  0.65096700  1
  C  C1023  1  0.84440000  0.73190000  0.32196700  1
  C  C1024  1  0.56550000  0.50900000  0.45956700  1
  C  C1025  1  0.91490000  0.54210000  0.45746700  1
  C  C1026  1  0.97080000  0.58990000  0.79216700  1
  C  C1027  1  0.84099000  0.53158000  0.41635700  1
  C  C1028  1  0.86366000  0.52428000  0.42983700  1
  C  C1029  1  0.89258000  0.55040000  0.44228700  1
  C  C1030  1  0.89888000  0.58386000  0.44125700  1
  C  C1031  1  0.87621000  0.59116000  0.42777700  1
  C  C1032  1  0.84726000  0.56502000  0.41532700  1
  C  C1033  1  0.82459000  0.57231000  0.40185700  1
  C  C1034  1  0.83091000  0.60580000  0.40082700  1
  C  C1035  1  0.85980000  0.63189000  0.41326700  1
  C  C1036  1  0.88248000  0.62460000  0.42674700  1
  C  C1037  1  0.10060000  0.04810000  0.78896700  1
  C  C1038  1  0.58088000  0.52958000  0.20743700  1
  C  C1039  1  0.19435000  0.03032000  0.75337700  1
  C  C1040  1  0.22636000  0.04360000  0.74128700  1
  C  C1041  1  0.24685000  0.07870000  0.73779700  1
  C  C1042  1  0.23539000  0.10058000  0.74639700  1
  C  C1043  1  0.20340000  0.08732000  0.75849700  1
  C  C1044  1  0.18288000  0.05219000  0.76197700  1
  C  C1045  1  0.15090000  0.03893000  0.77407700  1
  C  C1046  1  0.13942000  0.06080000  0.78267700  1
  C  C1047  1  0.15995000  0.09594000  0.77918700  1
  C  C1048  1  0.19194000  0.10920000  0.76709700  1
  C  C1049  1  0.47270000  0.04850000  0.78336700  1
  C  C1050  1  0.19510000  0.84910000  0.33383333  1
  C  C1051  1  0.25370000  0.88180000  0.31923333  1
  C  C1052  1  0.14153000  0.28378000  0.27288333  1
  C  C1053  1  0.13100000  0.29578000  0.29472333  1
  C  C1054  1  0.15270000  0.32815000  0.30527333  1
  C  C1055  1  0.18492000  0.34854000  0.29397333  1
  C  C1056  1  0.19545000  0.33654000  0.27213333  1
  C  C1057  1  0.17376000  0.30417000  0.26158333  1
  C  C1058  1  0.04471000  0.41423000  0.77923333  1
  C  C1059  1  0.06431000  0.44973000  0.77844333  1
  C  C1060  1  0.09562000  0.46544000  0.76504333  1
  C  C1061  1  0.10732000  0.44566000  0.75243333  1
  C  C1062  1  0.08772000  0.41017000  0.75322333  1
  C  C1063  1  0.05641000  0.39445000  0.76662333  1
  C  C1064  1  0.03681000  0.35896000  0.76741333  1
  C  C1065  1  0.04851000  0.33918000  0.75480333  1
  C  C1066  1  0.07981000  0.35490000  0.74140333  1
  C  C1067  1  0.09942000  0.39039000  0.74060333  1
  C  C1068  1  0.19900000  0.35520000  0.64883333  1
  C  C1069  1  0.13410000  0.37654000  0.35806333  1
  C  C1070  1  0.14361000  0.39653000  0.38140333  1
  C  C1071  1  0.17263000  0.40250000  0.39572333  1
  C  C1072  1  0.19215000  0.38846000  0.38669333  1
  C  C1073  1  0.18264000  0.36846000  0.36335333  1
  C  C1074  1  0.15362000  0.36250000  0.34903333  1
  C  C1075  1  0.37160000  0.45760000  0.45993333  1
  C  C1076  1  0.10760000  0.29830000  0.33673333  1
  C  C1077  1  0.28022000  0.41020000  0.24671333  1
  C  C1078  1  0.24733000  0.39262000  0.25741333  1
  C  C1079  1  0.23097000  0.35730000  0.26055333  1
  C  C1080  1  0.24749000  0.33956000  0.25298333  1
  C  C1081  1  0.28038000  0.35714000  0.24228333  1
  C  C1082  1  0.29674000  0.39245000  0.23914333  1
  C  C1083  1  0.32963000  0.41003000  0.22844333  1
  C  C1084  1  0.34616000  0.39229000  0.22087333  1
  C  C1085  1  0.32979000  0.35697000  0.22401333  1
  C  C1086  1  0.29690000  0.33939000  0.23471333  1
  C  C1087  1  0.32613000  0.96599000  0.24010333  1
  C  C1088  1  0.29465000  0.95460000  0.25262333  1
  C  C1089  1  0.27836000  0.92296000  0.26550333  1
  C  C1090  1  0.29355000  0.90270000  0.26586333  1
  C  C1091  1  0.32503000  0.91409000  0.25334333  1
  C  C1092  1  0.34133000  0.94574000  0.24046333  1
  C  C1093  1  0.37281000  0.95713000  0.22794333  1
  C  C1094  1  0.38800000  0.93687000  0.22830333  1
  C  C1095  1  0.37171000  0.90522000  0.24119333  1
  C  C1096  1  0.34023000  0.89383000  0.25370333  1
  C  C1097  1  0.09240000  0.33347000  0.72667333  1
  C  C1098  1  0.11158000  0.34401000  0.70291333  1
  C  C1099  1  0.11702000  0.32096000  0.68805333  1
  C  C1100  1  0.10328000  0.28739000  0.69694333  1
  C  C1101  1  0.08409000  0.27685000  0.72070333  1
  C  C1102  1  0.07865000  0.29990000  0.73557333  1
  C  C1103  1  0.12426000  0.71754000  0.41278333  1
  C  C1104  1  0.13792000  0.74985000  0.40119333  1
  C  C1105  1  0.11803000  0.76533000  0.39898333  1
  C  C1106  1  0.08448000  0.74850000  0.40835333  1
  C  C1107  1  0.07082000  0.71619000  0.41994333  1
  C  C1108  1  0.09071000  0.70071000  0.42216333  1
  C  C1109  1  0.07705000  0.66841000  0.43374333  1
  C  C1110  1  0.04350000  0.65157000  0.44312333  1
  C  C1111  1  0.02360000  0.66705000  0.44090333  1
  C  C1112  1  0.03726000  0.69936000  0.42931333  1
  C  C1113  1  0.04010000  0.94370000  0.45533333  1
  C  C1114  1  0.03648000  0.14399000  0.76512333  1
  C  C1115  1  0.05974000  0.13537000  0.77569333  1
  C  C1116  1  0.09457000  0.15902000  0.77515333  1
  C  C1117  1  0.10613000  0.19130000  0.76406333  1
  C  C1118  1  0.08287000  0.19992000  0.75350333  1
  C  C1119  1  0.04804000  0.17627000  0.75403333  1
  C  C1120  1  0.02478000  0.18489000  0.74347333  1
  C  C1121  1  0.03634000  0.21717000  0.73237333  1
  C  C1122  1  0.07117000  0.24083000  0.73184333  1
  C  C1123  1  0.09443000  0.23220000  0.74240333  1
  C  C1124  1  0.25853000  0.37607000  0.42518333  1
  C  C1125  1  0.22863000  0.36937000  0.41188333  1
  C  C1126  1  0.22512000  0.39622000  0.40179333  1
  C  C1127  1  0.25150000  0.42978000  0.40500333  1
  C  C1128  1  0.28140000  0.43648000  0.41830333  1
  C  C1129  1  0.28491000  0.40963000  0.42839333  1
  C  C1130  1  0.31481000  0.41633000  0.44169333  1
  C  C1131  1  0.34119000  0.44989000  0.44490333  1
  C  C1132  1  0.33768000  0.47674000  0.43481333  1
  C  C1133  1  0.30778000  0.47004000  0.42151333  1
  C  C1134  1  0.11390000  0.35510000  0.31463333  1
  C  C1135  1  0.13880000  0.32540000  0.66563333  1
  C  C1136  1  0.09830000  0.28000000  0.31063333  1
  C  C1137  1  0.12712000  0.17165000  0.24681333  1
  C  C1138  1  0.10834000  0.13984000  0.23445333  1
  C  C1139  1  0.07621000  0.12987000  0.22369333  1
  C  C1140  1  0.06287000  0.15171000  0.22529333  1
  C  C1141  1  0.08166000  0.18351000  0.23765333  1
  C  C1142  1  0.11378000  0.19348000  0.24841333  1
  C  C1143  1  0.13257000  0.22529000  0.26078333  1
  C  C1144  1  0.11923000  0.24712000  0.26238333  1
  C  C1145  1  0.08710000  0.23715000  0.25162333  1
  C  C1146  1  0.06832000  0.20535000  0.23926333  1
  C  C1147  1  0.17910000  0.81120000  0.32143333  1
  C  C1148  1  0.09264000  0.86572000  0.40794333  1
  C  C1149  1  0.12771000  0.87879000  0.40551333  1
  C  C1150  1  0.15041000  0.91164000  0.41469333  1
  C  C1151  1  0.13805000  0.93142000  0.42630333  1
  C  C1152  1  0.10299000  0.91835000  0.42873333  1
  C  C1153  1  0.08029000  0.88551000  0.41955333  1
  C  C1154  1  0.04522000  0.87244000  0.42199333  1
  C  C1155  1  0.03287000  0.89222000  0.43359333  1
  C  C1156  1  0.05557000  0.92507000  0.44277333  1
  C  C1157  1  0.09063000  0.93814000  0.44034333  1
  C  C1158  1  0.15669000  0.81225000  0.36612333  1
  C  C1159  1  0.17003000  0.84560000  0.35679333  1
  C  C1160  1  0.16054000  0.86732000  0.36912333  1
  C  C1161  1  0.13772000  0.85569000  0.39077333  1
  C  C1162  1  0.12439000  0.82234000  0.40010333  1
  C  C1163  1  0.13388000  0.80062000  0.38777333  1
  C  C1164  1  0.13390000  0.33750000  0.32743333  1
  C  C1165  1  0.20088000  0.87673000  0.31050333  1
  C  C1166  1  0.23399000  0.88973000  0.30071333  1
  C  C1167  1  0.24530000  0.91238000  0.27894333  1
  C  C1168  1  0.22350000  0.92203000  0.26696333  1
  C  C1169  1  0.19040000  0.90900000  0.27676333  1
  C  C1170  1  0.17908000  0.88638000  0.29852333  1
  C  C1171  1  0.10390000  0.36650000  0.33903333  1
  C  C1172  1  0.13542000  0.44625000  0.39565333  1
  C  C1173  1  0.12177000  0.41138000  0.39130333  1
  C  C1174  1  0.08943000  0.38827000  0.40119333  1
  C  C1175  1  0.07073000  0.40003000  0.41541333  1
  C  C1176  1  0.08437000  0.43490000  0.41976333  1
  C  C1177  1  0.11672000  0.45801000  0.40988333  1
  C  C1178  1  0.13036000  0.49288000  0.41422333  1
  C  C1179  1  0.11166000  0.50465000  0.42845333  1
  C  C1180  1  0.07932000  0.48153000  0.43833333  1
  C  C1181  1  0.06567000  0.44666000  0.43398333  1
  C  C1182  1  0.23320000  0.86900000  0.34603333  1
  C  C1183  1  0.17440000  0.33680000  0.67273333  1
  C  C1184  1  0.02800000  0.61690000  0.45503333  1
  C  C1185  1  0.14759000  0.35469000  0.64293333  1
  C  C1186  1  0.12806000  0.36856000  0.63357333  1
  C  C1187  1  0.13966000  0.39142000  0.61194333  1
  C  C1188  1  0.17078000  0.40041000  0.59968333  1
  C  C1189  1  0.19032000  0.38650000  0.60904333  1
  C  C1190  1  0.17872000  0.36369000  0.63067333  1
  C  C1191  1  0.05750000  0.49500000  0.45113333  1
  C  C1192  1  0.13070000  0.43932000  0.59745333  1
  C  C1193  1  0.11830000  0.40429000  0.59884333  1
  C  C1194  1  0.08725000  0.38163000  0.58673333  1
  C  C1195  1  0.06860000  0.39400000  0.57321333  1
  C  C1196  1  0.08100000  0.42903000  0.57182333  1
  C  C1197  1  0.11205000  0.45169000  0.58394333  1
  C  C1198  1  0.12445000  0.48673000  0.58255333  1
  C  C1199  1  0.10580000  0.49910000  0.56904333  1
  C  C1200  1  0.07475000  0.47644000  0.55692333  1
  C  C1201  1  0.06235000  0.44140000  0.55831333  1
  C  C1202  1  0.04640000  0.09900000  0.78693333  1
  C  C1203  1  0.05840000  0.09710000  0.20963333  1
  C  C1204  1  0.12450000  0.29180000  0.65173333  1
  C  C1205  1  0.16970000  0.79410000  0.34903333  1
  C  C1206  1  0.11250000  0.26810000  0.67803333  1
  C  C1207  1  0.05650000  0.49100000  0.54043333  1
  C  C1208  1  0.37280000  0.45790000  0.54253333  1
  C  C1209  1  0.38090000  0.41010000  0.20783333  1
  C  C1210  1  0.30941000  0.46842000  0.58364333  1
  C  C1211  1  0.33938000  0.47572000  0.57016333  1
  C  C1212  1  0.34218000  0.44960000  0.55771333  1
  C  C1213  1  0.31502000  0.41614000  0.55874333  1
  C  C1214  1  0.28505000  0.40884000  0.57222333  1
  C  C1215  1  0.28224000  0.43498000  0.58467333  1
  C  C1216  1  0.25228000  0.42769000  0.59814333  1
  C  C1217  1  0.22511000  0.39420000  0.59917333  1
  C  C1218  1  0.22791000  0.36811000  0.58673333  1
  C  C1219  1  0.25788000  0.37540000  0.57325333  1
  C  C1220  1  0.05250000  0.95190000  0.21103333  1
  C  C1221  1  0.05130000  0.47042000  0.79256333  1
  C  C1222  1  0.16403000  0.96968000  0.24662333  1
  C  C1223  1  0.18276000  0.95640000  0.25871333  1
  C  C1224  1  0.16815000  0.92130000  0.26220333  1
  C  C1225  1  0.13481000  0.89942000  0.25360333  1
  C  C1226  1  0.11608000  0.91268000  0.24150333  1
  C  C1227  1  0.13069000  0.94781000  0.23802333  1
  C  C1228  1  0.11197000  0.96107000  0.22592333  1
  C  C1229  1  0.07862000  0.93920000  0.21732333  1
  C  C1230  1  0.06401000  0.90406000  0.22081333  1
  C  C1231  1  0.08274000  0.89080000  0.23290333  1
  C  C1232  1  0.42420000  0.95150000  0.21663333  1
  C  C1233  1  0.80490000  0.65400000  0.99950033  1
  C  C1234  1  0.74630000  0.62810000  0.01410033  1
  C  C1235  1  0.85847000  0.14225000  0.06045033  1
  C  C1236  1  0.86900000  0.16478000  0.03861033  1
  C  C1237  1  0.84730000  0.17545000  0.02806033  1
  C  C1238  1  0.81508000  0.16362000  0.03936033  1
  C  C1239  1  0.80455000  0.14109000  0.06120033  1
  C  C1240  1  0.82624000  0.13041000  0.07175033  1
  C  C1241  1  0.95529000  0.36952000  0.55410033  1
  C  C1242  1  0.93569000  0.38542000  0.55489033  1
  C  C1243  1  0.90438000  0.36982000  0.56829033  1
  C  C1244  1  0.89268000  0.33834000  0.58090033  1
  C  C1245  1  0.91228000  0.32245000  0.58011033  1
  C  C1246  1  0.94359000  0.33804000  0.56671033  1
  C  C1247  1  0.96319000  0.32215000  0.56592033  1
  C  C1248  1  0.95149000  0.29067000  0.57853033  1
  C  C1249  1  0.92019000  0.27509000  0.59193033  1
  C  C1250  1  0.90058000  0.29097000  0.59273033  1
  C  C1251  1  0.80100000  0.15620000  0.68450033  1
  C  C1252  1  0.86590000  0.24244000  0.97527033  1
  C  C1253  1  0.85639000  0.25292000  0.95193033  1
  C  C1254  1  0.82737000  0.22987000  0.93761033  1
  C  C1255  1  0.80785000  0.19631000  0.94664033  1
  C  C1256  1  0.81736000  0.18582000  0.96998033  1
  C  C1257  1  0.84638000  0.20888000  0.98430033  1
  C  C1258  1  0.62840000  0.08600000  0.87340033  1
  C  C1259  1  0.89240000  0.19070000  0.99660033  1
  C  C1260  1  0.71978000  0.12998000  0.08662033  1
  C  C1261  1  0.75267000  0.14529000  0.07592033  1
  C  C1262  1  0.76903000  0.12633000  0.07278033  1
  C  C1263  1  0.75251000  0.09207000  0.08035033  1
  C  C1264  1  0.71962000  0.07676000  0.09105033  1
  C  C1265  1  0.70326000  0.09571000  0.09419033  1
  C  C1266  1  0.67037000  0.08040000  0.10489033  1
  C  C1267  1  0.65384000  0.04613000  0.11246033  1
  C  C1268  1  0.67021000  0.02718000  0.10932033  1
  C  C1269  1  0.70310000  0.04249000  0.09862033  1
  C  C1270  1  0.67387000  0.63986000  0.09323033  1
  C  C1271  1  0.70535000  0.65995000  0.08071033  1
  C  C1272  1  0.72164000  0.64460000  0.06783033  1
  C  C1273  1  0.70645000  0.60915000  0.06747033  1
  C  C1274  1  0.67497000  0.58906000  0.07999033  1
  C  C1275  1  0.65867000  0.60441000  0.09287033  1
  C  C1276  1  0.62719000  0.58432000  0.10539033  1
  C  C1277  1  0.61200000  0.54887000  0.10503033  1
  C  C1278  1  0.62829000  0.53351000  0.09214033  1
  C  C1279  1  0.65977000  0.55360000  0.07963033  1
  C  C1280  1  0.90760000  0.24107000  0.60666033  1
  C  C1281  1  0.88842000  0.23243000  0.63042033  1
  C  C1282  1  0.88298000  0.20394000  0.64528033  1
  C  C1283  1  0.89672000  0.18411000  0.63639033  1
  C  C1284  1  0.91591000  0.19276000  0.61263033  1
  C  C1285  1  0.92135000  0.22125000  0.59776033  1
  C  C1286  1  0.87574000  0.59328000  0.92055033  1
  C  C1287  1  0.86208000  0.61193000  0.93214033  1
  C  C1288  1  0.88197000  0.64730000  0.93435033  1
  C  C1289  1  0.91552000  0.66402000  0.92498033  1
  C  C1290  1  0.92918000  0.64537000  0.91339033  1
  C  C1291  1  0.90929000  0.61000000  0.91117033  1
  C  C1292  1  0.92295000  0.59136000  0.89959033  1
  C  C1293  1  0.95650000  0.60807000  0.89021033  1
  C  C1294  1  0.97640000  0.64345000  0.89243033  1
  C  C1295  1  0.96274000  0.66210000  0.90402033  1
  C  C1296  1  0.95990000  0.90360000  0.87800033  1
  C  C1297  1  0.96352000  0.10751000  0.56821033  1
  C  C1298  1  0.94026000  0.07563000  0.55764033  1
  C  C1299  1  0.90543000  0.06445000  0.55818033  1
  C  C1300  1  0.89387000  0.08517000  0.56927033  1
  C  C1301  1  0.91713000  0.11705000  0.57983033  1
  C  C1302  1  0.95196000  0.12823000  0.57930033  1
  C  C1303  1  0.97522000  0.16011000  0.58986033  1
  C  C1304  1  0.96366000  0.18083000  0.60096033  1
  C  C1305  1  0.92883000  0.16966000  0.60149033  1
  C  C1306  1  0.90557000  0.13777000  0.59093033  1
  C  C1307  1  0.74147000  0.11754000  0.90815033  1
  C  C1308  1  0.77137000  0.14074000  0.92145033  1
  C  C1309  1  0.77488000  0.17110000  0.93154033  1
  C  C1310  1  0.74850000  0.17828000  0.92833033  1
  C  C1311  1  0.71860000  0.15508000  0.91503033  1
  C  C1312  1  0.71509000  0.12472000  0.90494033  1
  C  C1313  1  0.68519000  0.10152000  0.89164033  1
  C  C1314  1  0.65881000  0.10870000  0.88843033  1
  C  C1315  1  0.66232000  0.13906000  0.89852033  1
  C  C1316  1  0.69222000  0.16226000  0.91182033  1
  C  C1317  1  0.88610000  0.24120000  0.01870033  1
  C  C1318  1  0.86120000  0.18660000  0.66770033  1
  C  C1319  1  0.90170000  0.18170000  0.02270033  1
  C  C1320  1  0.87288000  0.04453000  0.08652033  1
  C  C1321  1  0.89166000  0.03150000  0.09888033  1
  C  C1322  1  0.92379000  0.05366000  0.10964033  1
  C  C1323  1  0.93713000  0.08884000  0.10804033  1
  C  C1324  1  0.91834000  0.10185000  0.09568033  1
  C  C1325  1  0.88622000  0.07970000  0.08492033  1
  C  C1326  1  0.86743000  0.09272000  0.07255033  1
  C  C1327  1  0.88077000  0.12789000  0.07095033  1
  C  C1328  1  0.91290000  0.15005000  0.08171033  1
  C  C1329  1  0.93168000  0.13703000  0.09407033  1
  C  C1330  1  0.82090000  0.63210000  0.01190033  1
  C  C1331  1  0.90736000  0.77308000  0.92539033  1
  C  C1332  1  0.87229000  0.75108000  0.92782033  1
  C  C1333  1  0.84959000  0.76123000  0.91864033  1
  C  C1334  1  0.86195000  0.79337000  0.90703033  1
  C  C1335  1  0.89701000  0.81536000  0.90460033  1
  C  C1336  1  0.91971000  0.80522000  0.91378033  1
  C  C1337  1  0.95478000  0.82722000  0.91134033  1
  C  C1338  1  0.96713000  0.85935000  0.89974033  1
  C  C1339  1  0.94443000  0.86950000  0.89056033  1
  C  C1340  1  0.90937000  0.84751000  0.89299033  1
  C  C1341  1  0.84331000  0.65556000  0.96721033  1
  C  C1342  1  0.82997000  0.67557000  0.97654033  1
  C  C1343  1  0.83946000  0.70678000  0.96421033  1
  C  C1344  1  0.86228000  0.71797000  0.94256033  1
  C  C1345  1  0.87561000  0.69795000  0.93323033  1
  C  C1346  1  0.86612000  0.66674000  0.94556033  1
  C  C1347  1  0.86610000  0.20360000  0.00590033  1
  C  C1348  1  0.79912000  0.67585000  0.02283033  1
  C  C1349  1  0.76601000  0.65574000  0.03262033  1
  C  C1350  1  0.75470000  0.66708000  0.05439033  1
  C  C1351  1  0.77650000  0.69853000  0.06637033  1
  C  C1352  1  0.80960000  0.71860000  0.05657033  1
  C  C1353  1  0.82092000  0.70730000  0.03481033  1
  C  C1354  1  0.89610000  0.26260000  0.99430033  1
  C  C1355  1  0.86458000  0.31083000  0.93768033  1
  C  C1356  1  0.87823000  0.28961000  0.94203033  1
  C  C1357  1  0.91057000  0.29884000  0.93214033  1
  C  C1358  1  0.92927000  0.32930000  0.91792033  1
  C  C1359  1  0.91563000  0.35053000  0.91357033  1
  C  C1360  1  0.88328000  0.34129000  0.92345033  1
  C  C1361  1  0.86964000  0.36252000  0.91911033  1
  C  C1362  1  0.88834000  0.39299000  0.90488033  1
  C  C1363  1  0.92068000  0.40221000  0.89500033  1
  C  C1364  1  0.93433000  0.38099000  0.89935033  1
  C  C1365  1  0.76680000  0.63580000  0.98730033  1
  C  C1366  1  0.82560000  0.16240000  0.66060033  1
  C  C1367  1  0.97200000  0.58890000  0.87830033  1
  C  C1368  1  0.85241000  0.20710000  0.69040033  1
  C  C1369  1  0.87194000  0.24050000  0.69976033  1
  C  C1370  1  0.86034000  0.25176000  0.72139033  1
  C  C1371  1  0.82922000  0.22963000  0.73365033  1
  C  C1372  1  0.80968000  0.19618000  0.72429033  1
  C  C1373  1  0.82128000  0.18497000  0.70266033  1
  C  C1374  1  0.94250000  0.43750000  0.88220033  1
  C  C1375  1  0.86930000  0.30862000  0.73588033  1
  C  C1376  1  0.88170000  0.28599000  0.73449033  1
  C  C1377  1  0.91275000  0.29438000  0.74660033  1
  C  C1378  1  0.93140000  0.32540000  0.76012033  1
  C  C1379  1  0.91900000  0.34803000  0.76151033  1
  C  C1380  1  0.88795000  0.33964000  0.74939033  1
  C  C1381  1  0.87555000  0.36228000  0.75078033  1
  C  C1382  1  0.89420000  0.39330000  0.76429033  1
  C  C1383  1  0.92525000  0.40169000  0.77641033  1
  C  C1384  1  0.93765000  0.37905000  0.77502033  1
  C  C1385  1  0.95360000  0.05260000  0.54640033  1
  C  C1386  1  0.94160000  0.03870000  0.12370033  1
  C  C1387  1  0.87550000  0.16730000  0.68160033  1
  C  C1388  1  0.83030000  0.62440000  0.98430033  1
  C  C1389  1  0.88750000  0.15560000  0.65530033  1
  C  C1390  1  0.94350000  0.43450000  0.79290033  1
  C  C1391  1  0.62720000  0.08510000  0.79080033  1
  C  C1392  1  0.61910000  0.02920000  0.12550033  1
  C  C1393  1  0.69059000  0.15901000  0.74969033  1
  C  C1394  1  0.66062000  0.13634000  0.76317033  1
  C  C1395  1  0.65782000  0.10742000  0.77562033  1
  C  C1396  1  0.68498000  0.10112000  0.77459033  1
  C  C1397  1  0.71495000  0.12379000  0.76111033  1
  C  C1398  1  0.71776000  0.15274000  0.74866033  1
  C  C1399  1  0.74772000  0.17541000  0.73519033  1
  C  C1400  1  0.77489000  0.16909000  0.73416033  1
  C  C1401  1  0.77209000  0.14020000  0.74660033  1
  C  C1402  1  0.74212000  0.11752000  0.76008033  1
  C  C1403  1  0.94750000  0.89940000  0.12230033  1
  C  C1404  1  0.94870000  0.41912000  0.54077033  1
  C  C1405  1  0.83597000  0.80565000  0.08671033  1
  C  C1406  1  0.81724000  0.77364000  0.07462033  1
  C  C1407  1  0.83185000  0.75315000  0.07113033  1
  C  C1408  1  0.86519000  0.76461000  0.07973033  1
  C  C1409  1  0.88392000  0.79660000  0.09183033  1
  C  C1410  1  0.86931000  0.81712000  0.09531033  1
  C  C1411  1  0.88803000  0.84910000  0.10741033  1
  C  C1412  1  0.92138000  0.86058000  0.11601033  1
  C  C1413  1  0.93599000  0.84005000  0.11252033  1
  C  C1414  1  0.91726000  0.80806000  0.10043033  1
  C  C1415  1  0.57580000  0.52730000  0.11670033  1
  C  C1416  1  0.65400000  0.80490000  0.66716667  1
  C  C1417  1  0.62810000  0.74630000  0.65256667  1
  C  C1418  1  0.14225000  0.85847000  0.60621667  1
  C  C1419  1  0.16478000  0.86900000  0.62805667  1
  C  C1420  1  0.17545000  0.84730000  0.63860667  1
  C  C1421  1  0.16362000  0.81508000  0.62730667  1
  C  C1422  1  0.14109000  0.80455000  0.60546667  1
  C  C1423  1  0.13041000  0.82624000  0.59491667  1
  C  C1424  1  0.36952000  0.95529000  0.11256667  1
  C  C1425  1  0.38542000  0.93569000  0.11177667  1
  C  C1426  1  0.36982000  0.90438000  0.09837667  1
  C  C1427  1  0.33834000  0.89268000  0.08576667  1
  C  C1428  1  0.32245000  0.91228000  0.08655667  1
  C  C1429  1  0.33804000  0.94359000  0.09995667  1
  C  C1430  1  0.32215000  0.96319000  0.10074667  1
  C  C1431  1  0.29067000  0.95149000  0.08813667  1
  C  C1432  1  0.27509000  0.92019000  0.07473667  1
  C  C1433  1  0.29097000  0.90058000  0.07393667  1
  C  C1434  1  0.15620000  0.80100000  0.98216667  1
  C  C1435  1  0.24244000  0.86590000  0.69139667  1
  C  C1436  1  0.25292000  0.85639000  0.71473667  1
  C  C1437  1  0.22987000  0.82737000  0.72905667  1
  C  C1438  1  0.19631000  0.80785000  0.72002667  1
  C  C1439  1  0.18582000  0.81736000  0.69668667  1
  C  C1440  1  0.20888000  0.84638000  0.68236667  1
  C  C1441  1  0.08600000  0.62840000  0.79326667  1
  C  C1442  1  0.19070000  0.89240000  0.67006667  1
  C  C1443  1  0.12998000  0.71978000  0.58004667  1
  C  C1444  1  0.14529000  0.75267000  0.59074667  1
  C  C1445  1  0.12633000  0.76903000  0.59388667  1
  C  C1446  1  0.09207000  0.75251000  0.58631667  1
  C  C1447  1  0.07676000  0.71962000  0.57561667  1
  C  C1448  1  0.09571000  0.70326000  0.57247667  1
  C  C1449  1  0.08040000  0.67037000  0.56177667  1
  C  C1450  1  0.04613000  0.65384000  0.55420667  1
  C  C1451  1  0.02718000  0.67021000  0.55734667  1
  C  C1452  1  0.04249000  0.70310000  0.56804667  1
  C  C1453  1  0.63986000  0.67387000  0.57343667  1
  C  C1454  1  0.65995000  0.70535000  0.58595667  1
  C  C1455  1  0.64460000  0.72164000  0.59883667  1
  C  C1456  1  0.60915000  0.70645000  0.59919667  1
  C  C1457  1  0.58906000  0.67497000  0.58667667  1
  C  C1458  1  0.60441000  0.65867000  0.57379667  1
  C  C1459  1  0.58432000  0.62719000  0.56127667  1
  C  C1460  1  0.54887000  0.61200000  0.56163667  1
  C  C1461  1  0.53351000  0.62829000  0.57452667  1
  C  C1462  1  0.55360000  0.65977000  0.58703667  1
  C  C1463  1  0.24107000  0.90760000  0.06000667  1
  C  C1464  1  0.23243000  0.88842000  0.03624667  1
  C  C1465  1  0.20394000  0.88298000  0.02138667  1
  C  C1466  1  0.18411000  0.89672000  0.03027667  1
  C  C1467  1  0.19276000  0.91591000  0.05403667  1
  C  C1468  1  0.22125000  0.92135000  0.06890667  1
  C  C1469  1  0.59328000  0.87574000  0.74611667  1
  C  C1470  1  0.61193000  0.86208000  0.73452667  1
  C  C1471  1  0.64730000  0.88197000  0.73231667  1
  C  C1472  1  0.66402000  0.91552000  0.74168667  1
  C  C1473  1  0.64537000  0.92918000  0.75327667  1
  C  C1474  1  0.61000000  0.90929000  0.75549667  1
  C  C1475  1  0.59136000  0.92295000  0.76707667  1
  C  C1476  1  0.60807000  0.95650000  0.77645667  1
  C  C1477  1  0.64345000  0.97640000  0.77423667  1
  C  C1478  1  0.66210000  0.96274000  0.76264667  1
  C  C1479  1  0.90360000  0.95990000  0.78866667  1
  C  C1480  1  0.10751000  0.96352000  0.09845667  1
  C  C1481  1  0.07563000  0.94026000  0.10902667  1
  C  C1482  1  0.06445000  0.90543000  0.10848667  1
  C  C1483  1  0.08517000  0.89387000  0.09739667  1
  C  C1484  1  0.11705000  0.91713000  0.08683667  1
  C  C1485  1  0.12823000  0.95196000  0.08736667  1
  C  C1486  1  0.16011000  0.97522000  0.07680667  1
  C  C1487  1  0.18083000  0.96366000  0.06570667  1
  C  C1488  1  0.16966000  0.92883000  0.06517667  1
  C  C1489  1  0.13777000  0.90557000  0.07573667  1
  C  C1490  1  0.11754000  0.74147000  0.75851667  1
  C  C1491  1  0.14074000  0.77137000  0.74521667  1
  C  C1492  1  0.17110000  0.77488000  0.73512667  1
  C  C1493  1  0.17828000  0.74850000  0.73833667  1
  C  C1494  1  0.15508000  0.71860000  0.75163667  1
  C  C1495  1  0.12472000  0.71509000  0.76172667  1
  C  C1496  1  0.10152000  0.68519000  0.77502667  1
  C  C1497  1  0.10870000  0.65881000  0.77823667  1
  C  C1498  1  0.13906000  0.66232000  0.76814667  1
  C  C1499  1  0.16226000  0.69222000  0.75484667  1
  C  C1500  1  0.24120000  0.88610000  0.64796667  1
  C  C1501  1  0.18660000  0.86120000  0.99896667  1
  C  C1502  1  0.18170000  0.90170000  0.64396667  1
  C  C1503  1  0.04453000  0.87288000  0.58014667  1
  C  C1504  1  0.03150000  0.89166000  0.56778667  1
  C  C1505  1  0.05366000  0.92379000  0.55702667  1
  C  C1506  1  0.08884000  0.93713000  0.55862667  1
  C  C1507  1  0.10185000  0.91834000  0.57098667  1
  C  C1508  1  0.07970000  0.88622000  0.58174667  1
  C  C1509  1  0.09272000  0.86743000  0.59411667  1
  C  C1510  1  0.12789000  0.88077000  0.59571667  1
  C  C1511  1  0.15005000  0.91290000  0.58495667  1
  C  C1512  1  0.13703000  0.93168000  0.57259667  1
  C  C1513  1  0.63210000  0.82090000  0.65476667  1
  C  C1514  1  0.77308000  0.90736000  0.74127667  1
  C  C1515  1  0.75108000  0.87229000  0.73884667  1
  C  C1516  1  0.76123000  0.84959000  0.74802667  1
  C  C1517  1  0.79337000  0.86195000  0.75963667  1
  C  C1518  1  0.81536000  0.89701000  0.76206667  1
  C  C1519  1  0.80522000  0.91971000  0.75288667  1
  C  C1520  1  0.82722000  0.95478000  0.75532667  1
  C  C1521  1  0.85935000  0.96713000  0.76692667  1
  C  C1522  1  0.86950000  0.94443000  0.77610667  1
  C  C1523  1  0.84751000  0.90937000  0.77367667  1
  C  C1524  1  0.65556000  0.84331000  0.69945667  1
  C  C1525  1  0.67557000  0.82997000  0.69012667  1
  C  C1526  1  0.70678000  0.83946000  0.70245667  1
  C  C1527  1  0.71797000  0.86228000  0.72410667  1
  C  C1528  1  0.69795000  0.87561000  0.73343667  1
  C  C1529  1  0.66674000  0.86612000  0.72110667  1
  C  C1530  1  0.20360000  0.86610000  0.66076667  1
  C  C1531  1  0.67585000  0.79912000  0.64383667  1
  C  C1532  1  0.65574000  0.76601000  0.63404667  1
  C  C1533  1  0.66708000  0.75470000  0.61227667  1
  C  C1534  1  0.69853000  0.77650000  0.60029667  1
  C  C1535  1  0.71860000  0.80960000  0.61009667  1
  C  C1536  1  0.70730000  0.82092000  0.63185667  1
  C  C1537  1  0.26260000  0.89610000  0.67236667  1
  C  C1538  1  0.31083000  0.86458000  0.72898667  1
  C  C1539  1  0.28961000  0.87823000  0.72463667  1
  C  C1540  1  0.29884000  0.91057000  0.73452667  1
  C  C1541  1  0.32930000  0.92927000  0.74874667  1
  C  C1542  1  0.35053000  0.91563000  0.75309667  1
  C  C1543  1  0.34129000  0.88328000  0.74321667  1
  C  C1544  1  0.36252000  0.86964000  0.74755667  1
  C  C1545  1  0.39299000  0.88834000  0.76178667  1
  C  C1546  1  0.40221000  0.92068000  0.77166667  1
  C  C1547  1  0.38099000  0.93433000  0.76731667  1
  C  C1548  1  0.63580000  0.76680000  0.67936667  1
  C  C1549  1  0.16240000  0.82560000  0.00606667  1
  C  C1550  1  0.58890000  0.97200000  0.78836667  1
  C  C1551  1  0.20710000  0.85241000  0.97626667  1
  C  C1552  1  0.24050000  0.87194000  0.96690667  1
  C  C1553  1  0.25176000  0.86034000  0.94527667  1
  C  C1554  1  0.22963000  0.82922000  0.93301667  1
  C  C1555  1  0.19618000  0.80968000  0.94237667  1
  C  C1556  1  0.18497000  0.82128000  0.96400667  1
  C  C1557  1  0.43750000  0.94250000  0.78446667  1
  C  C1558  1  0.30862000  0.86930000  0.93078667  1
  C  C1559  1  0.28599000  0.88170000  0.93217667  1
  C  C1560  1  0.29438000  0.91275000  0.92006667  1
  C  C1561  1  0.32540000  0.93140000  0.90654667  1
  C  C1562  1  0.34803000  0.91900000  0.90515667  1
  C  C1563  1  0.33964000  0.88795000  0.91727667  1
  C  C1564  1  0.36228000  0.87555000  0.91588667  1
  C  C1565  1  0.39330000  0.89420000  0.90237667  1
  C  C1566  1  0.40169000  0.92525000  0.89025667  1
  C  C1567  1  0.37905000  0.93765000  0.89164667  1
  C  C1568  1  0.05260000  0.95360000  0.12026667  1
  C  C1569  1  0.03870000  0.94160000  0.54296667  1
  C  C1570  1  0.16730000  0.87550000  0.98506667  1
  C  C1571  1  0.62440000  0.83030000  0.68236667  1
  C  C1572  1  0.15560000  0.88750000  0.01136667  1
  C  C1573  1  0.43450000  0.94350000  0.87376667  1
  C  C1574  1  0.08510000  0.62720000  0.87586667  1
  C  C1575  1  0.02920000  0.61910000  0.54116667  1
  C  C1576  1  0.15901000  0.69059000  0.91697667  1
  C  C1577  1  0.13634000  0.66062000  0.90349667  1
  C  C1578  1  0.10742000  0.65782000  0.89104667  1
  C  C1579  1  0.10112000  0.68498000  0.89207667  1
  C  C1580  1  0.12379000  0.71495000  0.90555667  1
  C  C1581  1  0.15274000  0.71776000  0.91800667  1
  C  C1582  1  0.17541000  0.74772000  0.93147667  1
  C  C1583  1  0.16909000  0.77489000  0.93250667  1
  C  C1584  1  0.14020000  0.77209000  0.92006667  1
  C  C1585  1  0.11752000  0.74212000  0.90658667  1
  C  C1586  1  0.89940000  0.94750000  0.54436667  1
  C  C1587  1  0.41912000  0.94870000  0.12589667  1
  C  C1588  1  0.80565000  0.83597000  0.57995667  1
  C  C1589  1  0.77364000  0.81724000  0.59204667  1
  C  C1590  1  0.75315000  0.83185000  0.59553667  1
  C  C1591  1  0.76461000  0.86519000  0.58693667  1
  C  C1592  1  0.79660000  0.88392000  0.57483667  1
  C  C1593  1  0.81712000  0.86931000  0.57135667  1
  C  C1594  1  0.84910000  0.88803000  0.55925667  1
  C  C1595  1  0.86058000  0.92138000  0.55065667  1
  C  C1596  1  0.84005000  0.93599000  0.55414667  1
  C  C1597  1  0.80806000  0.91726000  0.56623667  1
  C  C1598  1  0.52730000  0.57580000  0.54996667  1
  C  C1599  1  0.84910000  0.19510000  0.33283367  1
  C  C1600  1  0.88180000  0.25370000  0.34743367  1
  C  C1601  1  0.28378000  0.14153000  0.39378367  1
  C  C1602  1  0.29578000  0.13100000  0.37194367  1
  C  C1603  1  0.32815000  0.15270000  0.36139367  1
  C  C1604  1  0.34854000  0.18492000  0.37269367  1
  C  C1605  1  0.33654000  0.19545000  0.39453367  1
  C  C1606  1  0.30417000  0.17376000  0.40508367  1
  C  C1607  1  0.41423000  0.04471000  0.88743367  1
  C  C1608  1  0.44973000  0.06431000  0.88822367  1
  C  C1609  1  0.46544000  0.09562000  0.90162367  1
  C  C1610  1  0.44566000  0.10732000  0.91423367  1
  C  C1611  1  0.41017000  0.08772000  0.91344367  1
  C  C1612  1  0.39445000  0.05641000  0.90004367  1
  C  C1613  1  0.35896000  0.03681000  0.89925367  1
  C  C1614  1  0.33918000  0.04851000  0.91186367  1
  C  C1615  1  0.35490000  0.07981000  0.92526367  1
  C  C1616  1  0.39039000  0.09942000  0.92606367  1
  C  C1617  1  0.35520000  0.19900000  0.01783367  1
  C  C1618  1  0.37654000  0.13410000  0.30860367  1
  C  C1619  1  0.39653000  0.14361000  0.28526367  1
  C  C1620  1  0.40250000  0.17263000  0.27094367  1
  C  C1621  1  0.38846000  0.19215000  0.27997367  1
  C  C1622  1  0.36846000  0.18264000  0.30331367  1
  C  C1623  1  0.36250000  0.15362000  0.31763367  1
  C  C1624  1  0.45760000  0.37160000  0.20673367  1
  C  C1625  1  0.29830000  0.10760000  0.32993367  1
  C  C1626  1  0.41020000  0.28022000  0.41995367  1
  C  C1627  1  0.39262000  0.24733000  0.40925367  1
  C  C1628  1  0.35730000  0.23097000  0.40611367  1
  C  C1629  1  0.33956000  0.24749000  0.41368367  1
  C  C1630  1  0.35714000  0.28038000  0.42438367  1
  C  C1631  1  0.39245000  0.29674000  0.42752367  1
  C  C1632  1  0.41003000  0.32963000  0.43822367  1
  C  C1633  1  0.39229000  0.34616000  0.44579367  1
  C  C1634  1  0.35697000  0.32979000  0.44265367  1
  C  C1635  1  0.33939000  0.29690000  0.43195367  1
  C  C1636  1  0.96599000  0.32613000  0.42656367  1
  C  C1637  1  0.95460000  0.29465000  0.41404367  1
  C  C1638  1  0.92296000  0.27836000  0.40116367  1
  C  C1639  1  0.90270000  0.29355000  0.40080367  1
  C  C1640  1  0.91409000  0.32503000  0.41332367  1
  C  C1641  1  0.94574000  0.34133000  0.42620367  1
  C  C1642  1  0.95713000  0.37281000  0.43872367  1
  C  C1643  1  0.93687000  0.38800000  0.43836367  1
  C  C1644  1  0.90522000  0.37171000  0.42547367  1
  C  C1645  1  0.89383000  0.34023000  0.41296367  1
  C  C1646  1  0.33347000  0.09240000  0.93999367  1
  C  C1647  1  0.34401000  0.11158000  0.96375367  1
  C  C1648  1  0.32096000  0.11702000  0.97861367  1
  C  C1649  1  0.28739000  0.10328000  0.96972367  1
  C  C1650  1  0.27685000  0.08409000  0.94596367  1
  C  C1651  1  0.29990000  0.07865000  0.93109367  1
  C  C1652  1  0.71754000  0.12426000  0.25388367  1
  C  C1653  1  0.74985000  0.13792000  0.26547367  1
  C  C1654  1  0.76533000  0.11803000  0.26768367  1
  C  C1655  1  0.74850000  0.08448000  0.25831367  1
  C  C1656  1  0.71619000  0.07082000  0.24672367  1
  C  C1657  1  0.70071000  0.09071000  0.24450367  1
  C  C1658  1  0.66841000  0.07705000  0.23292367  1
  C  C1659  1  0.65157000  0.04350000  0.22354367  1
  C  C1660  1  0.66705000  0.02360000  0.22576367  1
  C  C1661  1  0.69936000  0.03726000  0.23735367  1
  C  C1662  1  0.94370000  0.04010000  0.21133367  1
  C  C1663  1  0.14399000  0.03648000  0.90154367  1
  C  C1664  1  0.13537000  0.05974000  0.89097367  1
  C  C1665  1  0.15902000  0.09457000  0.89151367  1
  C  C1666  1  0.19130000  0.10613000  0.90260367  1
  C  C1667  1  0.19992000  0.08287000  0.91316367  1
  C  C1668  1  0.17627000  0.04804000  0.91263367  1
  C  C1669  1  0.18489000  0.02478000  0.92319367  1
  C  C1670  1  0.21717000  0.03634000  0.93429367  1
  C  C1671  1  0.24083000  0.07117000  0.93482367  1
  C  C1672  1  0.23220000  0.09443000  0.92426367  1
  C  C1673  1  0.37607000  0.25853000  0.24148367  1
  C  C1674  1  0.36937000  0.22863000  0.25478367  1
  C  C1675  1  0.39622000  0.22512000  0.26487367  1
  C  C1676  1  0.42978000  0.25150000  0.26166367  1
  C  C1677  1  0.43648000  0.28140000  0.24836367  1
  C  C1678  1  0.40963000  0.28491000  0.23827367  1
  C  C1679  1  0.41633000  0.31481000  0.22497367  1
  C  C1680  1  0.44989000  0.34119000  0.22176367  1
  C  C1681  1  0.47674000  0.33768000  0.23185367  1
  C  C1682  1  0.47004000  0.30778000  0.24515367  1
  C  C1683  1  0.35510000  0.11390000  0.35203367  1
  C  C1684  1  0.32540000  0.13880000  0.00103367  1
  C  C1685  1  0.28000000  0.09830000  0.35603367  1
  C  C1686  1  0.17165000  0.12712000  0.41985367  1
  C  C1687  1  0.13984000  0.10834000  0.43221367  1
  C  C1688  1  0.12987000  0.07621000  0.44297367  1
  C  C1689  1  0.15171000  0.06287000  0.44137367  1
  C  C1690  1  0.18351000  0.08166000  0.42901367  1
  C  C1691  1  0.19348000  0.11378000  0.41825367  1
  C  C1692  1  0.22529000  0.13257000  0.40588367  1
  C  C1693  1  0.24712000  0.11923000  0.40428367  1
  C  C1694  1  0.23715000  0.08710000  0.41504367  1
  C  C1695  1  0.20535000  0.06832000  0.42740367  1
  C  C1696  1  0.81120000  0.17910000  0.34523367  1
  C  C1697  1  0.86572000  0.09264000  0.25872367  1
  C  C1698  1  0.87879000  0.12771000  0.26115367  1
  C  C1699  1  0.91164000  0.15041000  0.25197367  1
  C  C1700  1  0.93142000  0.13805000  0.24036367  1
  C  C1701  1  0.91835000  0.10299000  0.23793367  1
  C  C1702  1  0.88551000  0.08029000  0.24711367  1
  C  C1703  1  0.87244000  0.04522000  0.24467367  1
  C  C1704  1  0.89222000  0.03287000  0.23307367  1
  C  C1705  1  0.92507000  0.05557000  0.22389367  1
  C  C1706  1  0.93814000  0.09063000  0.22632367  1
  C  C1707  1  0.81225000  0.15669000  0.30054367  1
  C  C1708  1  0.84560000  0.17003000  0.30987367  1
  C  C1709  1  0.86732000  0.16054000  0.29754367  1
  C  C1710  1  0.85569000  0.13772000  0.27589367  1
  C  C1711  1  0.82234000  0.12439000  0.26656367  1
  C  C1712  1  0.80062000  0.13388000  0.27889367  1
  C  C1713  1  0.33750000  0.13390000  0.33923367  1
  C  C1714  1  0.87673000  0.20088000  0.35616367  1
  C  C1715  1  0.88973000  0.23399000  0.36595367  1
  C  C1716  1  0.91238000  0.24530000  0.38772367  1
  C  C1717  1  0.92203000  0.22350000  0.39970367  1
  C  C1718  1  0.90900000  0.19040000  0.38990367  1
  C  C1719  1  0.88638000  0.17908000  0.36814367  1
  C  C1720  1  0.36650000  0.10390000  0.32763367  1
  C  C1721  1  0.44625000  0.13542000  0.27101367  1
  C  C1722  1  0.41138000  0.12177000  0.27536367  1
  C  C1723  1  0.38827000  0.08943000  0.26547367  1
  C  C1724  1  0.40003000  0.07073000  0.25125367  1
  C  C1725  1  0.43490000  0.08437000  0.24690367  1
  C  C1726  1  0.45801000  0.11672000  0.25678367  1
  C  C1727  1  0.49288000  0.13036000  0.25244367  1
  C  C1728  1  0.50465000  0.11166000  0.23821367  1
  C  C1729  1  0.48153000  0.07932000  0.22833367  1
  C  C1730  1  0.44666000  0.06567000  0.23268367  1
  C  C1731  1  0.86900000  0.23320000  0.32063367  1
  C  C1732  1  0.33680000  0.17440000  0.99393367  1
  C  C1733  1  0.61690000  0.02800000  0.21163367  1
  C  C1734  1  0.35469000  0.14759000  0.02373367  1
  C  C1735  1  0.36856000  0.12806000  0.03309367  1
  C  C1736  1  0.39142000  0.13966000  0.05472367  1
  C  C1737  1  0.40041000  0.17078000  0.06698367  1
  C  C1738  1  0.38650000  0.19032000  0.05762367  1
  C  C1739  1  0.36369000  0.17872000  0.03599367  1
  C  C1740  1  0.49500000  0.05750000  0.21553367  1
  C  C1741  1  0.43932000  0.13070000  0.06921367  1
  C  C1742  1  0.40429000  0.11830000  0.06782367  1
  C  C1743  1  0.38163000  0.08725000  0.07993367  1
  C  C1744  1  0.39400000  0.06860000  0.09345367  1
  C  C1745  1  0.42903000  0.08100000  0.09484367  1
  C  C1746  1  0.45169000  0.11205000  0.08272367  1
  C  C1747  1  0.48673000  0.12445000  0.08411367  1
  C  C1748  1  0.49910000  0.10580000  0.09762367  1
  C  C1749  1  0.47644000  0.07475000  0.10974367  1
  C  C1750  1  0.44140000  0.06235000  0.10835367  1
  C  C1751  1  0.09900000  0.04640000  0.87973367  1
  C  C1752  1  0.09710000  0.05840000  0.45703367  1
  C  C1753  1  0.29180000  0.12450000  0.01493367  1
  C  C1754  1  0.79410000  0.16970000  0.31763367  1
  C  C1755  1  0.26810000  0.11250000  0.98863367  1
  C  C1756  1  0.49100000  0.05650000  0.12623367  1
  C  C1757  1  0.45790000  0.37280000  0.12413367  1
  C  C1758  1  0.41010000  0.38090000  0.45883367  1
  C  C1759  1  0.46842000  0.30941000  0.08302367  1
  C  C1760  1  0.47572000  0.33938000  0.09650367  1
  C  C1761  1  0.44960000  0.34218000  0.10895367  1
  C  C1762  1  0.41614000  0.31502000  0.10792367  1
  C  C1763  1  0.40884000  0.28505000  0.09444367  1
  C  C1764  1  0.43498000  0.28224000  0.08199367  1
  C  C1765  1  0.42769000  0.25228000  0.06852367  1
  C  C1766  1  0.39420000  0.22511000  0.06749367  1
  C  C1767  1  0.36811000  0.22791000  0.07993367  1
  C  C1768  1  0.37540000  0.25788000  0.09341367  1
  C  C1769  1  0.95190000  0.05250000  0.45563367  1
  C  C1770  1  0.47042000  0.05130000  0.87410367  1
  C  C1771  1  0.96968000  0.16403000  0.42004367  1
  C  C1772  1  0.95640000  0.18276000  0.40795367  1
  C  C1773  1  0.92130000  0.16815000  0.40446367  1
  C  C1774  1  0.89942000  0.13481000  0.41306367  1
  C  C1775  1  0.91268000  0.11608000  0.42516367  1
  C  C1776  1  0.94781000  0.13069000  0.42864367  1
  C  C1777  1  0.96107000  0.11197000  0.44074367  1
  C  C1778  1  0.93920000  0.07862000  0.44934367  1
  C  C1779  1  0.90406000  0.06401000  0.44585367  1
  C  C1780  1  0.89080000  0.08274000  0.43376367  1
  C  C1781  1  0.95150000  0.42420000  0.45003367  1
  O  O1782  1  0.03080000  0.03244000  0.87190000  1
  O  O1783  1  0.04797000  0.00825000  0.83339000  1
  O  O1784  1  0.54270000  0.98560000  0.12842000  1
  O  O1785  1  0.40220000  0.44390000  0.11600000  1
  O  O1786  1  0.97775000  0.97618000  0.86837000  1
  O  O1787  1  0.54537000  0.02911000  0.08843000  1
  O  O1788  1  0.49906000  0.99632000  0.20685000  1
  O  O1789  1  0.99913000  0.95280000  0.83319000  1
  O  O1790  1  0.54620000  0.02540000  0.24862000  1
  O  O1791  1  0.46215000  0.94691000  0.17052000  1
  O  O1792  1  0.56682000  0.93787000  0.14135000  1
  O  O1793  1  0.62102000  0.82917000  0.97483000  1
  O  O1794  1  0.10201000  0.27084000  0.02251000  1
  O  O1795  1  0.64360000  0.73806000  0.31161000  1
  O  O1796  1  0.62408000  0.74286000  0.35674000  1
  O  O1797  1  0.56366000  0.02034000  0.16913000  1
  O  O1798  1  0.64209000  0.69921000  0.34467000  1
  O  O1799  1  0.12549000  0.27201000  0.97727000  1
  O  O1800  1  0.90487000  0.94012000  0.85874000  1
  O  O1801  1  0.64487000  0.84739000  0.01941000  1
  O  O1802  1  0.05480000  0.95070000  0.86596000  1
  O  O1803  1  0.58566000  0.69567000  0.32930000  1
  O  O1804  1  0.58630000  0.83840000  0.00786000  1
  O  O1805  1  0.03316000  0.09411000  0.13847000  1
  O  O1806  1  0.92512000  0.98931000  0.88228000  1
  O  O1807  1  0.48982000  0.94753000  0.08808000  1
  O  O1808  1  0.12090000  0.22600000  0.00970000  1
  O  O1809  1  0.64170000  0.88880000  0.98835000  1
  O  O1810  1  0.06262000  0.07462000  0.11753000  1
  O  O1811  1  0.39089000  0.39463000  0.13770000  1
  O  O1812  1  0.49291000  0.94397000  0.24809000  1
  O  O1813  1  0.06040000  0.22380000  0.99170000  1
  O  O1814  1  0.51410000  0.91530000  0.11754000  1
  O  O1815  1  0.95170000  0.05490000  0.86271000  1
  O  O1816  1  0.55800000  0.95906000  0.88362000  1
  O  O1817  1  0.51610000  0.91620000  0.21749000  1
  O  O1818  1  0.52924000  0.56649000  0.18911000  1
  O  O1819  1  0.58270000  0.08620000  0.13268000  1
  O  O1820  1  0.60419000  0.99442000  0.85845000  1
  O  O1821  1  0.47873000  0.54155000  0.21415000  1
  O  O1822  1  0.56746000  0.93908000  0.19312000  1
  O  O1823  1  0.90250000  0.96756000  0.47287000  1
  O  O1824  1  0.45030000  0.88730000  0.13811000  1
  O  O1825  1  0.97953000  0.02524000  0.91144000  1
  O  O1826  1  0.52328000  0.03990000  0.16935000  1
  O  O1827  1  0.02178000  0.98281000  0.91289000  1
  O  O1828  1  0.52213000  0.56482000  0.13676000  1
  O  O1829  1  0.58460000  0.08730000  0.20018000  1
  O  O1830  1  0.92360000  0.93750000  0.44830000  1
  O  O1831  1  0.49858000  0.99633000  0.13601000  1
  O  O1832  1  0.45770000  0.89500000  0.20550000  1
  O  O1833  1  0.54400000  0.98280000  0.20796000  1
  O  O1834  1  0.47470000  0.53710000  0.11569000  1
  O  O1835  1  0.51119000  0.94264000  0.16947000  1
  O  O1836  1  0.06211000  0.09821000  0.85928000  1
  O  O1837  1  0.01683000  0.08030000  0.88037000  1
  O  O1838  1  0.06370000  0.50410000  0.88804000  1
  O  O1839  1  0.49800000  0.56027000  0.44993000  1
  O  O1840  1  0.54443000  0.57331000  0.47680000  1
  O  O1841  1  0.03040000  0.45775000  0.86422000  1
  O  O1842  1  0.03244000  0.03080000  0.79476700  1
  O  O1843  1  0.00825000  0.04797000  0.83327700  1
  O  O1844  1  0.98560000  0.54270000  0.53824700  1
  O  O1845  1  0.44390000  0.40220000  0.55066700  1
  O  O1846  1  0.97618000  0.97775000  0.79829700  1
  O  O1847  1  0.02911000  0.54537000  0.57823700  1
  O  O1848  1  0.99632000  0.49906000  0.45981700  1
  O  O1849  1  0.95280000  0.99913000  0.83347700  1
  O  O1850  1  0.02540000  0.54620000  0.41804700  1
  O  O1851  1  0.94691000  0.46215000  0.49614700  1
  O  O1852  1  0.93787000  0.56682000  0.52531700  1
  O  O1853  1  0.82917000  0.62102000  0.69183700  1
  O  O1854  1  0.27084000  0.10201000  0.64415700  1
  O  O1855  1  0.73806000  0.64360000  0.35505700  1
  O  O1856  1  0.74286000  0.62408000  0.30992700  1
  O  O1857  1  0.02034000  0.56366000  0.49753700  1
  O  O1858  1  0.69921000  0.64209000  0.32199700  1
  O  O1859  1  0.27201000  0.12549000  0.68939700  1
  O  O1860  1  0.94012000  0.90487000  0.80792700  1
  O  O1861  1  0.84739000  0.64487000  0.64725700  1
  O  O1862  1  0.95070000  0.05480000  0.80070700  1
  O  O1863  1  0.69567000  0.58566000  0.33736700  1
  O  O1864  1  0.83840000  0.58630000  0.65880700  1
  O  O1865  1  0.09411000  0.03316000  0.52819700  1
  O  O1866  1  0.98931000  0.92512000  0.78438700  1
  O  O1867  1  0.94753000  0.48982000  0.57858700  1
  O  O1868  1  0.22600000  0.12090000  0.65696700  1
  O  O1869  1  0.88880000  0.64170000  0.67831700  1
  O  O1870  1  0.07462000  0.06262000  0.54913700  1
  O  O1871  1  0.39463000  0.39089000  0.52896700  1
  O  O1872  1  0.94397000  0.49291000  0.41857700  1
  O  O1873  1  0.22380000  0.06040000  0.67496700  1
  O  O1874  1  0.91530000  0.51410000  0.54912700  1
  O  O1875  1  0.05490000  0.95170000  0.80395700  1
  O  O1876  1  0.95906000  0.55800000  0.78304700  1
  O  O1877  1  0.91620000  0.51610000  0.44917700  1
  O  O1878  1  0.56649000  0.52924000  0.47755700  1
  O  O1879  1  0.08620000  0.58270000  0.53398700  1
  O  O1880  1  0.99442000  0.60419000  0.80821700  1
  O  O1881  1  0.54155000  0.47873000  0.45251700  1
  O  O1882  1  0.93908000  0.56746000  0.47354700  1
  O  O1883  1  0.96756000  0.90250000  0.19379700  1
  O  O1884  1  0.88730000  0.45030000  0.52855700  1
  O  O1885  1  0.02524000  0.97953000  0.75522700  1
  O  O1886  1  0.03990000  0.52328000  0.49731700  1
  O  O1887  1  0.98281000  0.02178000  0.75377700  1
  O  O1888  1  0.56482000  0.52213000  0.52990700  1
  O  O1889  1  0.08730000  0.58460000  0.46648700  1
  O  O1890  1  0.93750000  0.92360000  0.21836700  1
  O  O1891  1  0.99633000  0.49858000  0.53065700  1
  O  O1892  1  0.89500000  0.45770000  0.46116700  1
  O  O1893  1  0.98280000  0.54400000  0.45870700  1
  O  O1894  1  0.53710000  0.47470000  0.55097700  1
  O  O1895  1  0.94264000  0.51119000  0.49719700  1
  O  O1896  1  0.09821000  0.06211000  0.80738700  1
  O  O1897  1  0.08030000  0.01683000  0.78629700  1
  O  O1898  1  0.50410000  0.06370000  0.77862700  1
  O  O1899  1  0.56027000  0.49800000  0.21673700  1
  O  O1900  1  0.57331000  0.54443000  0.18986700  1
  O  O1901  1  0.45775000  0.03040000  0.80244700  1
  O  O1902  1  0.04170000  0.59780000  0.44933300  1
  O  O1903  1  0.59780000  0.04170000  0.21733300  1
  O  O1904  1  0.90589000  0.93905000  0.80513700  1
  O  O1905  1  0.93905000  0.90589000  0.86153000  1
  O  O1906  1  0.92538000  0.98800000  0.78419700  1
  O  O1907  1  0.98800000  0.92538000  0.88247000  1
  O  O1908  1  0.00374000  0.60911000  0.47103300  1
  O  O1909  1  0.60911000  0.00374000  0.19563300  1
  O  O1910  1  0.04094000  0.59894000  0.55028700  1
  O  O1911  1  0.59894000  0.04094000  0.11638000  1
  O  O1912  1  0.03725000  0.47076000  0.52244300  1
  O  O1913  1  0.47076000  0.03725000  0.14422300  1
  O  O1914  1  0.00558000  0.60977000  0.52511700  1
  O  O1915  1  0.60977000  0.00558000  0.14155000  1
  O  O1916  1  0.06282000  0.52127000  0.54748300  1
  O  O1917  1  0.52127000  0.06282000  0.11918300  1
  O  O1918  1  0.06506000  0.09750000  0.80620300  1
  O  O1919  1  0.09750000  0.06506000  0.86046300  1
  O  O1920  1  0.04269000  0.47787000  0.47009300  1
  O  O1921  1  0.47787000  0.04269000  0.19657300  1
  O  O1922  1  0.01390000  0.07640000  0.78163300  1
  O  O1923  1  0.07640000  0.01390000  0.88503300  1
  O  O1924  1  0.06240000  0.52530000  0.44902300  1
  O  O1925  1  0.52530000  0.06240000  0.21764300  1
  O  O1926  1  0.44040000  0.93630000  0.22137300  1
  O  O1927  1  0.93630000  0.44040000  0.44529300  1
  O  O1928  1  0.43973000  0.93773000  0.11659700  1
  O  O1929  1  0.93773000  0.43973000  0.55007000  1
  O  O1930  1  0.42669000  0.97112000  0.14346700  1
  O  O1931  1  0.97112000  0.42669000  0.52320000  1
  O  O1932  1  0.42735000  0.96960000  0.19755300  1
  O  O1933  1  0.96960000  0.42735000  0.46911300  1
  O  O1934  1  0.00164000  0.96920000  0.20523333  1
  O  O1935  1  0.96028000  0.95203000  0.16672333  1
  O  O1936  1  0.44290000  0.45730000  0.46175333  1
  O  O1937  1  0.99843000  0.02225000  0.20170333  1
  O  O1938  1  0.48374000  0.45463000  0.42176333  1
  O  O1939  1  0.49726000  0.50094000  0.54018333  1
  O  O1940  1  0.95367000  0.00087000  0.16652333  1
  O  O1941  1  0.47920000  0.45380000  0.58195333  1
  O  O1942  1  0.48476000  0.53785000  0.50385333  1
  O  O1943  1  0.37105000  0.43318000  0.47468333  1
  O  O1944  1  0.20815000  0.37898000  0.30816333  1
  O  O1945  1  0.16883000  0.89799000  0.35584333  1
  O  O1946  1  0.09446000  0.35640000  0.64494333  1
  O  O1947  1  0.11878000  0.37592000  0.69007333  1
  O  O1948  1  0.45668000  0.43634000  0.50246333  1
  O  O1949  1  0.05712000  0.35791000  0.67800333  1
  O  O1950  1  0.14652000  0.87451000  0.31060333  1
  O  O1951  1  0.03525000  0.09513000  0.19207333  1
  O  O1952  1  0.20252000  0.35513000  0.35274333  1
  O  O1953  1  0.89590000  0.94520000  0.19929333  1
  O  O1954  1  0.11001000  0.41434000  0.66263333  1
  O  O1955  1  0.25210000  0.41370000  0.34119333  1
  O  O1956  1  0.06095000  0.96684000  0.47180333  1
  O  O1957  1  0.06419000  0.07488000  0.21561333  1
  O  O1958  1  0.45771000  0.51018000  0.42141333  1
  O  O1959  1  0.10510000  0.87910000  0.34303333  1
  O  O1960  1  0.24710000  0.35830000  0.32168333  1
  O  O1961  1  0.01200000  0.93738000  0.45086333  1
  O  O1962  1  0.45106000  0.50709000  0.58142333  1
  O  O1963  1  0.16340000  0.93960000  0.32503333  1
  O  O1964  1  0.40120000  0.48590000  0.45087333  1
  O  O1965  1  0.10320000  0.04830000  0.19604333  1
  O  O1966  1  0.40106000  0.44200000  0.21695333  1
  O  O1967  1  0.40010000  0.48390000  0.55082333  1
  O  O1968  1  0.50350000  0.41730000  0.46601333  1
  O  O1969  1  0.39023000  0.39581000  0.19178333  1
  O  O1970  1  0.37162000  0.43254000  0.52645333  1
  O  O1971  1  0.43700000  0.54970000  0.47144333  1
  O  O1972  1  0.04571000  0.02047000  0.24477333  1
  O  O1973  1  0.51662000  0.47672000  0.50268333  1
  O  O1974  1  0.96103000  0.97822000  0.24622333  1
  O  O1975  1  0.50270000  0.41540000  0.53351333  1
  O  O1976  1  0.49775000  0.50142000  0.46934333  1
  O  O1977  1  0.43730000  0.54230000  0.53883333  1
  O  O1978  1  0.43880000  0.45600000  0.54129333  1
  O  O1979  1  0.43145000  0.48881000  0.50280333  1
  O  O1980  1  0.03610000  0.93789000  0.19261333  1
  O  O1981  1  0.06347000  0.98317000  0.21370333  1
  O  O1982  1  0.06227000  0.50200000  0.78326333  1
  O  O1983  1  0.02888000  0.45557000  0.81013333  1
  O  O1984  1  0.99836000  0.96756000  0.12810033  1
  O  O1985  1  0.03972000  0.99175000  0.16661033  1
  O  O1986  1  0.55710000  0.01440000  0.87158033  1
  O  O1987  1  0.95830000  0.55610000  0.88400033  1
  O  O1988  1  0.00157000  0.02382000  0.13163033  1
  O  O1989  1  0.51626000  0.97089000  0.91157033  1
  O  O1990  1  0.50274000  0.00368000  0.79315033  1
  O  O1991  1  0.04633000  0.04720000  0.16681033  1
  O  O1992  1  0.52080000  0.97460000  0.75138033  1
  O  O1993  1  0.51524000  0.05309000  0.82948033  1
  O  O1994  1  0.62895000  0.06213000  0.85865033  1
  O  O1995  1  0.79185000  0.17083000  0.02517033  1
  O  O1996  1  0.83117000  0.72916000  0.97749033  1
  O  O1997  1  0.90554000  0.26194000  0.68839033  1
  O  O1998  1  0.88122000  0.25714000  0.64326033  1
  O  O1999  1  0.54332000  0.97966000  0.83087033  1
  O  O2000  1  0.94288000  0.30079000  0.65533033  1
  O  O2001  1  0.85348000  0.72799000  0.02273033  1
  O  O2002  1  0.96475000  0.05988000  0.14126033  1
  O  O2003  1  0.79748000  0.15261000  0.98059033  1
  O  O2004  1  0.10410000  0.04930000  0.13404033  1
  O  O2005  1  0.88999000  0.30433000  0.67070033  1
  O  O2006  1  0.74790000  0.16160000  0.99214033  1
  O  O2007  1  0.93581000  0.01069000  0.11772033  1
  O  O2008  1  0.54229000  0.05247000  0.91192033  1
  O  O2009  1  0.89490000  0.77400000  0.99030033  1
  O  O2010  1  0.75290000  0.11120000  0.01165033  1
  O  O2011  1  0.99626000  0.60537000  0.86230033  1
  O  O2012  1  0.54894000  0.05603000  0.75191033  1
  O  O2013  1  0.83660000  0.77620000  0.00830033  1
  O  O2014  1  0.59880000  0.08470000  0.88246033  1
  O  O2015  1  0.89680000  0.94510000  0.13729033  1
  O  O2016  1  0.59990000  0.08380000  0.78251033  1
  O  O2017  1  0.96275000  0.43351000  0.81089033  1
  O  O2018  1  0.49650000  0.91380000  0.86732033  1
  O  O2019  1  0.93718000  0.45845000  0.78585033  1
  O  O2020  1  0.62838000  0.06092000  0.80688033  1
  O  O2021  1  0.93494000  0.03244000  0.52713033  1
  O  O2022  1  0.56300000  0.11270000  0.86189033  1
  O  O2023  1  0.95429000  0.97476000  0.08856033  1
  O  O2024  1  0.48338000  0.96010000  0.83065033  1
  O  O2025  1  0.03897000  0.01719000  0.08711033  1
  O  O2026  1  0.95731000  0.43518000  0.86324033  1
  O  O2027  1  0.49730000  0.91270000  0.79982033  1
  O  O2028  1  0.98610000  0.06250000  0.55170033  1
  O  O2029  1  0.50225000  0.00367000  0.86399033  1
  O  O2030  1  0.56270000  0.10500000  0.79450033  1
  O  O2031  1  0.56120000  0.01720000  0.79204033  1
  O  O2032  1  0.93760000  0.46290000  0.88431033  1
  O  O2033  1  0.56855000  0.05736000  0.83053033  1
  O  O2034  1  0.96390000  0.90179000  0.14072033  1
  O  O2035  1  0.93653000  0.91970000  0.11963033  1
  O  O2036  1  0.55960000  0.49590000  0.11196033  1
  O  O2037  1  0.57265000  0.54225000  0.13578033  1
  O  O2038  1  0.55610000  0.95830000  0.78266633  1
  O  O2039  1  0.96684000  0.06095000  0.19486333  1
  O  O2040  1  0.93738000  0.01200000  0.21580333  1
  O  O2041  1  0.60537000  0.99626000  0.80436633  1
  O  O2042  1  0.44200000  0.40106000  0.44971333  1
  O  O2043  1  0.43351000  0.96275000  0.85577633  1
  O  O2044  1  0.39581000  0.39023000  0.47488333  1
  O  O2045  1  0.45845000  0.93718000  0.88081633  1
  O  O2046  1  0.03244000  0.93494000  0.13953633  1
  O  O2047  1  0.43518000  0.95731000  0.80342633  1
  O  O2048  1  0.06250000  0.98610000  0.11496633  1
  O  O2049  1  0.46290000  0.93760000  0.78235633  1
  O  O2050  1  0.49590000  0.55960000  0.55470633  1
  O  O2051  1  0.50200000  0.06227000  0.88340333  1
  O  O2052  1  0.45557000  0.02888000  0.85653333  1
  O  O2053  1  0.54225000  0.57265000  0.53088633  1
  O  O2054  1  0.96756000  0.99836000  0.53856667  1
  O  O2055  1  0.99175000  0.03972000  0.50005667  1
  O  O2056  1  0.01440000  0.55710000  0.79508667  1
  O  O2057  1  0.02382000  0.00157000  0.53503667  1
  O  O2058  1  0.97089000  0.51626000  0.75509667  1
  O  O2059  1  0.00368000  0.50274000  0.87351667  1
  O  O2060  1  0.04720000  0.04633000  0.49985667  1
  O  O2061  1  0.97460000  0.52080000  0.91528667  1
  O  O2062  1  0.05309000  0.51524000  0.83718667  1
  O  O2063  1  0.06213000  0.62895000  0.80801667  1
  O  O2064  1  0.17083000  0.79185000  0.64149667  1
  O  O2065  1  0.72916000  0.83117000  0.68917667  1
  O  O2066  1  0.26194000  0.90554000  0.97827667  1
  O  O2067  1  0.25714000  0.88122000  0.02340667  1
  O  O2068  1  0.97966000  0.54332000  0.83579667  1
  O  O2069  1  0.30079000  0.94288000  0.01133667  1
  O  O2070  1  0.72799000  0.85348000  0.64393667  1
  O  O2071  1  0.05988000  0.96475000  0.52540667  1
  O  O2072  1  0.15261000  0.79748000  0.68607667  1
  O  O2073  1  0.04930000  0.10410000  0.53262667  1
  O  O2074  1  0.30433000  0.88999000  0.99596667  1
  O  O2075  1  0.16160000  0.74790000  0.67452667  1
  O  O2076  1  0.01069000  0.93581000  0.54894667  1
  O  O2077  1  0.05247000  0.54229000  0.75474667  1
  O  O2078  1  0.77400000  0.89490000  0.67636667  1
  O  O2079  1  0.11120000  0.75290000  0.65501667  1
  O  O2080  1  0.05603000  0.54894000  0.91475667  1
  O  O2081  1  0.77620000  0.83660000  0.65836667  1
  O  O2082  1  0.08470000  0.59880000  0.78420667  1
  O  O2083  1  0.94510000  0.89680000  0.52937667  1
  O  O2084  1  0.08380000  0.59990000  0.88415667  1
  O  O2085  1  0.91380000  0.49650000  0.79934667  1
  O  O2086  1  0.06092000  0.62838000  0.85978667  1
  O  O2087  1  0.11270000  0.56300000  0.80477667  1
  O  O2088  1  0.97476000  0.95429000  0.57810667  1
  O  O2089  1  0.96010000  0.48338000  0.83601667  1
  O  O2090  1  0.01719000  0.03897000  0.57955667  1
  O  O2091  1  0.91270000  0.49730000  0.86684667  1
  O  O2092  1  0.00367000  0.50225000  0.80267667  1
  O  O2093  1  0.10500000  0.56270000  0.87216667  1
  O  O2094  1  0.01720000  0.56120000  0.87462667  1
  O  O2095  1  0.05736000  0.56855000  0.83613667  1
  O  O2096  1  0.90179000  0.96390000  0.52594667  1
  O  O2097  1  0.91970000  0.93653000  0.54703667  1
  O  O2098  1  0.96920000  0.00164000  0.46143367  1
  O  O2099  1  0.95203000  0.96028000  0.49994367  1
  O  O2100  1  0.45730000  0.44290000  0.20491367  1
  O  O2101  1  0.02225000  0.99843000  0.46496367  1
  O  O2102  1  0.45463000  0.48374000  0.24490367  1
  O  O2103  1  0.50094000  0.49726000  0.12648367  1
  O  O2104  1  0.00087000  0.95367000  0.50014367  1
  O  O2105  1  0.45380000  0.47920000  0.08471367  1
  O  O2106  1  0.53785000  0.48476000  0.16281367  1
  O  O2107  1  0.43318000  0.37105000  0.19198367  1
  O  O2108  1  0.37898000  0.20815000  0.35850367  1
  O  O2109  1  0.89799000  0.16883000  0.31082367  1
  O  O2110  1  0.35640000  0.09446000  0.02172367  1
  O  O2111  1  0.37592000  0.11878000  0.97659367  1
  O  O2112  1  0.43634000  0.45668000  0.16420367  1
  O  O2113  1  0.35791000  0.05712000  0.98866367  1
  O  O2114  1  0.87451000  0.14652000  0.35606367  1
  O  O2115  1  0.09513000  0.03525000  0.47459367  1
  O  O2116  1  0.35513000  0.20252000  0.31392367  1
  O  O2117  1  0.94520000  0.89590000  0.46737367  1
  O  O2118  1  0.41434000  0.11001000  0.00403367  1
  O  O2119  1  0.41370000  0.25210000  0.32547367  1
  O  O2120  1  0.07488000  0.06419000  0.45105367  1
  O  O2121  1  0.51018000  0.45771000  0.24525367  1
  O  O2122  1  0.87910000  0.10510000  0.32363367  1
  O  O2123  1  0.35830000  0.24710000  0.34498367  1
  O  O2124  1  0.50709000  0.45106000  0.08524367  1
  O  O2125  1  0.93960000  0.16340000  0.34163367  1
  O  O2126  1  0.48590000  0.40120000  0.21579367  1
  O  O2127  1  0.04830000  0.10320000  0.47062367  1
  O  O2128  1  0.48390000  0.40010000  0.11584367  1
  O  O2129  1  0.41730000  0.50350000  0.20065367  1
  O  O2130  1  0.43254000  0.37162000  0.14021367  1
  O  O2131  1  0.54970000  0.43700000  0.19522367  1
  O  O2132  1  0.02047000  0.04571000  0.42189367  1
  O  O2133  1  0.47672000  0.51662000  0.16398367  1
  O  O2134  1  0.97822000  0.96103000  0.42044367  1
  O  O2135  1  0.41540000  0.50270000  0.13315367  1
  O  O2136  1  0.50142000  0.49775000  0.19732367  1
  O  O2137  1  0.54230000  0.43730000  0.12783367  1
  O  O2138  1  0.45600000  0.43880000  0.12537367  1
  O  O2139  1  0.48881000  0.43145000  0.16386367  1
  O  O2140  1  0.93789000  0.03610000  0.47405367  1
  O  O2141  1  0.98317000  0.06347000  0.45296367  1
