# generated using pymatgen
data_Zr3H29C51NO14
_symmetry_space_group_name_H-M   'P 1'
_cell_length_a   22.74090000
_cell_length_b   30.76690000
_cell_length_c   32.84400000
_cell_angle_alpha   90.00000000
_cell_angle_beta   90.00000000
_cell_angle_gamma   90.00000000
_symmetry_Int_Tables_number   1
_chemical_formula_structural   Zr3H29C51NO14
_chemical_formula_sum   'Zr24 H232 C408 N8 O112'
_cell_volume   22979.86282352
_cell_formula_units_Z   8
loop_
 _symmetry_equiv_pos_site_id
 _symmetry_equiv_pos_as_xyz
  1  'x, y, z'
loop_
 _atom_site_type_symbol
 _atom_site_label
 _atom_site_symmetry_multiplicity
 _atom_site_fract_x
 _atom_site_fract_y
 _atom_site_fract_z
 _atom_site_occupancy
  Zr  Zr0  1  0.50000000  0.28969000  0.42527000  1
  Zr  Zr1  1  0.00000000  0.78969000  0.92527000  1
  Zr  Zr2  1  0.50000000  0.71031000  0.42527000  1
  Zr  Zr3  1  0.00000000  0.21031000  0.92527000  1
  Zr  Zr4  1  0.50000000  0.28969000  0.57473000  1
  Zr  Zr5  1  0.00000000  0.78969000  0.07473000  1
  Zr  Zr6  1  0.50000000  0.71031000  0.57473000  1
  Zr  Zr7  1  0.00000000  0.21031000  0.07473000  1
  Zr  Zr8  1  0.42255000  0.34723000  0.50000000  1
  Zr  Zr9  1  0.42306000  0.23312000  0.50000000  1
  Zr  Zr10  1  0.92255000  0.84723000  0.00000000  1
  Zr  Zr11  1  0.92306000  0.73312000  0.00000000  1
  Zr  Zr12  1  0.57745000  0.65277000  0.50000000  1
  Zr  Zr13  1  0.57694000  0.76688000  0.50000000  1
  Zr  Zr14  1  0.07745000  0.15277000  0.00000000  1
  Zr  Zr15  1  0.07694000  0.26688000  0.00000000  1
  Zr  Zr16  1  0.57745000  0.34723000  0.50000000  1
  Zr  Zr17  1  0.57694000  0.23312000  0.50000000  1
  Zr  Zr18  1  0.07745000  0.84723000  0.00000000  1
  Zr  Zr19  1  0.07694000  0.73312000  0.00000000  1
  Zr  Zr20  1  0.42255000  0.65277000  0.50000000  1
  Zr  Zr21  1  0.42306000  0.76688000  0.50000000  1
  Zr  Zr22  1  0.92255000  0.15277000  0.00000000  1
  Zr  Zr23  1  0.92306000  0.26688000  0.00000000  1
  H  H24  1  0.13860000  0.32550000  0.22430000  1
  H  H25  1  0.31770000  0.41890000  0.40100000  1
  H  H26  1  0.16220000  0.45650000  0.18130000  1
  H  H27  1  0.33140000  0.35990000  0.27320000  1
  H  H28  1  0.40190000  0.33890000  0.32390000  1
  H  H29  1  0.23730000  0.35980000  0.24810000  1
  H  H30  1  0.15180000  0.35670000  0.08600000  1
  H  H31  1  0.26290000  0.44340000  0.34870000  1
  H  H32  1  0.18850000  0.40510000  0.13340000  1
  H  H33  1  0.10290000  0.27600000  0.17680000  1
  H  H34  1  0.63860000  0.82550000  0.72430000  1
  H  H35  1  0.81770000  0.91890000  0.90100000  1
  H  H36  1  0.66220000  0.95650000  0.68130000  1
  H  H37  1  0.83140000  0.85990000  0.77320000  1
  H  H38  1  0.90190000  0.83890000  0.82390000  1
  H  H39  1  0.73730000  0.85980000  0.74810000  1
  H  H40  1  0.65180000  0.85670000  0.58600000  1
  H  H41  1  0.76290000  0.94340000  0.84870000  1
  H  H42  1  0.68850000  0.90510000  0.63340000  1
  H  H43  1  0.60290000  0.77600000  0.67680000  1
  H  H44  1  0.86140000  0.67450000  0.22430000  1
  H  H45  1  0.68230000  0.58110000  0.40100000  1
  H  H46  1  0.83780000  0.54350000  0.18130000  1
  H  H47  1  0.66860000  0.64010000  0.27320000  1
  H  H48  1  0.59810000  0.66110000  0.32390000  1
  H  H49  1  0.76270000  0.64020000  0.24810000  1
  H  H50  1  0.84820000  0.64330000  0.08600000  1
  H  H51  1  0.73710000  0.55660000  0.34870000  1
  H  H52  1  0.81150000  0.59490000  0.13340000  1
  H  H53  1  0.89710000  0.72400000  0.17680000  1
  H  H54  1  0.36140000  0.17450000  0.72430000  1
  H  H55  1  0.18230000  0.08110000  0.90100000  1
  H  H56  1  0.33780000  0.04350000  0.68130000  1
  H  H57  1  0.16860000  0.14010000  0.77320000  1
  H  H58  1  0.09810000  0.16110000  0.82390000  1
  H  H59  1  0.26270000  0.14020000  0.74810000  1
  H  H60  1  0.34820000  0.14330000  0.58600000  1
  H  H61  1  0.23710000  0.05660000  0.84870000  1
  H  H62  1  0.31150000  0.09490000  0.63340000  1
  H  H63  1  0.39710000  0.22400000  0.67680000  1
  H  H64  1  0.86140000  0.32550000  0.77570000  1
  H  H65  1  0.68230000  0.41890000  0.59900000  1
  H  H66  1  0.83780000  0.45650000  0.81870000  1
  H  H67  1  0.66860000  0.35990000  0.72680000  1
  H  H68  1  0.59810000  0.33890000  0.67610000  1
  H  H69  1  0.76270000  0.35980000  0.75190000  1
  H  H70  1  0.84820000  0.35670000  0.91400000  1
  H  H71  1  0.73710000  0.44340000  0.65130000  1
  H  H72  1  0.81150000  0.40510000  0.86660000  1
  H  H73  1  0.89710000  0.27600000  0.82320000  1
  H  H74  1  0.36140000  0.82550000  0.27570000  1
  H  H75  1  0.18230000  0.91890000  0.09900000  1
  H  H76  1  0.33780000  0.95650000  0.31870000  1
  H  H77  1  0.16860000  0.85990000  0.22680000  1
  H  H78  1  0.09810000  0.83890000  0.17610000  1
  H  H79  1  0.26270000  0.85980000  0.25190000  1
  H  H80  1  0.34820000  0.85670000  0.41400000  1
  H  H81  1  0.23710000  0.94340000  0.15130000  1
  H  H82  1  0.31150000  0.90510000  0.36660000  1
  H  H83  1  0.39710000  0.77600000  0.32320000  1
  H  H84  1  0.13860000  0.67450000  0.77570000  1
  H  H85  1  0.31770000  0.58110000  0.59900000  1
  H  H86  1  0.16220000  0.54350000  0.81870000  1
  H  H87  1  0.33140000  0.64010000  0.72680000  1
  H  H88  1  0.40190000  0.66110000  0.67610000  1
  H  H89  1  0.23730000  0.64020000  0.75190000  1
  H  H90  1  0.15180000  0.64330000  0.91400000  1
  H  H91  1  0.26290000  0.55660000  0.65130000  1
  H  H92  1  0.18850000  0.59490000  0.86660000  1
  H  H93  1  0.10290000  0.72400000  0.82320000  1
  H  H94  1  0.63860000  0.17450000  0.27570000  1
  H  H95  1  0.81770000  0.08110000  0.09900000  1
  H  H96  1  0.66220000  0.04350000  0.31870000  1
  H  H97  1  0.83140000  0.14010000  0.22680000  1
  H  H98  1  0.90190000  0.16110000  0.17610000  1
  H  H99  1  0.73730000  0.14020000  0.25190000  1
  H  H100  1  0.65180000  0.14330000  0.41400000  1
  H  H101  1  0.76290000  0.05660000  0.15130000  1
  H  H102  1  0.68850000  0.09490000  0.36660000  1
  H  H103  1  0.60290000  0.22400000  0.32320000  1
  H  H104  1  0.86140000  0.67450000  0.77570000  1
  H  H105  1  0.68230000  0.58110000  0.59900000  1
  H  H106  1  0.83780000  0.54350000  0.81870000  1
  H  H107  1  0.66860000  0.64010000  0.72680000  1
  H  H108  1  0.59810000  0.66110000  0.67610000  1
  H  H109  1  0.76270000  0.64020000  0.75190000  1
  H  H110  1  0.84820000  0.64330000  0.91400000  1
  H  H111  1  0.73710000  0.55660000  0.65130000  1
  H  H112  1  0.81150000  0.59490000  0.86660000  1
  H  H113  1  0.89710000  0.72400000  0.82320000  1
  H  H114  1  0.36140000  0.17450000  0.27570000  1
  H  H115  1  0.18230000  0.08110000  0.09900000  1
  H  H116  1  0.33780000  0.04350000  0.31870000  1
  H  H117  1  0.16860000  0.14010000  0.22680000  1
  H  H118  1  0.09810000  0.16110000  0.17610000  1
  H  H119  1  0.26270000  0.14020000  0.25190000  1
  H  H120  1  0.34820000  0.14330000  0.41400000  1
  H  H121  1  0.23710000  0.05660000  0.15130000  1
  H  H122  1  0.31150000  0.09490000  0.36660000  1
  H  H123  1  0.39710000  0.22400000  0.32320000  1
  H  H124  1  0.13860000  0.32550000  0.77570000  1
  H  H125  1  0.31770000  0.41890000  0.59900000  1
  H  H126  1  0.16220000  0.45650000  0.81870000  1
  H  H127  1  0.33140000  0.35990000  0.72680000  1
  H  H128  1  0.40190000  0.33890000  0.67610000  1
  H  H129  1  0.23730000  0.35980000  0.75190000  1
  H  H130  1  0.15180000  0.35670000  0.91400000  1
  H  H131  1  0.26290000  0.44340000  0.65130000  1
  H  H132  1  0.18850000  0.40510000  0.86660000  1
  H  H133  1  0.10290000  0.27600000  0.82320000  1
  H  H134  1  0.63860000  0.82550000  0.27570000  1
  H  H135  1  0.81770000  0.91890000  0.09900000  1
  H  H136  1  0.66220000  0.95650000  0.31870000  1
  H  H137  1  0.83140000  0.85990000  0.22680000  1
  H  H138  1  0.90190000  0.83890000  0.17610000  1
  H  H139  1  0.73730000  0.85980000  0.25190000  1
  H  H140  1  0.65180000  0.85670000  0.41400000  1
  H  H141  1  0.76290000  0.94340000  0.15130000  1
  H  H142  1  0.68850000  0.90510000  0.36660000  1
  H  H143  1  0.60290000  0.77600000  0.32320000  1
  H  H144  1  0.13860000  0.67450000  0.22430000  1
  H  H145  1  0.31770000  0.58110000  0.40100000  1
  H  H146  1  0.16220000  0.54350000  0.18130000  1
  H  H147  1  0.33140000  0.64010000  0.27320000  1
  H  H148  1  0.40190000  0.66110000  0.32390000  1
  H  H149  1  0.23730000  0.64020000  0.24810000  1
  H  H150  1  0.15180000  0.64330000  0.08600000  1
  H  H151  1  0.26290000  0.55660000  0.34870000  1
  H  H152  1  0.18850000  0.59490000  0.13340000  1
  H  H153  1  0.10290000  0.72400000  0.17680000  1
  H  H154  1  0.63860000  0.17450000  0.72430000  1
  H  H155  1  0.81770000  0.08110000  0.90100000  1
  H  H156  1  0.66220000  0.04350000  0.68130000  1
  H  H157  1  0.83140000  0.14010000  0.77320000  1
  H  H158  1  0.90190000  0.16110000  0.82390000  1
  H  H159  1  0.73730000  0.14020000  0.74810000  1
  H  H160  1  0.65180000  0.14330000  0.58600000  1
  H  H161  1  0.76290000  0.05660000  0.84870000  1
  H  H162  1  0.68850000  0.09490000  0.63340000  1
  H  H163  1  0.60290000  0.22400000  0.67680000  1
  H  H164  1  0.86140000  0.32550000  0.22430000  1
  H  H165  1  0.68230000  0.41890000  0.40100000  1
  H  H166  1  0.83780000  0.45650000  0.18130000  1
  H  H167  1  0.66860000  0.35990000  0.27320000  1
  H  H168  1  0.59810000  0.33890000  0.32390000  1
  H  H169  1  0.76270000  0.35980000  0.24810000  1
  H  H170  1  0.84820000  0.35670000  0.08600000  1
  H  H171  1  0.73710000  0.44340000  0.34870000  1
  H  H172  1  0.81150000  0.40510000  0.13340000  1
  H  H173  1  0.89710000  0.27600000  0.17680000  1
  H  H174  1  0.36140000  0.82550000  0.72430000  1
  H  H175  1  0.18230000  0.91890000  0.90100000  1
  H  H176  1  0.33780000  0.95650000  0.68130000  1
  H  H177  1  0.16860000  0.85990000  0.77320000  1
  H  H178  1  0.09810000  0.83890000  0.82390000  1
  H  H179  1  0.26270000  0.85980000  0.74810000  1
  H  H180  1  0.34820000  0.85670000  0.58600000  1
  H  H181  1  0.23710000  0.94340000  0.84870000  1
  H  H182  1  0.31150000  0.90510000  0.63340000  1
  H  H183  1  0.39710000  0.77600000  0.67680000  1
  H  H184  1  0.29000000  0.50000000  0.30430000  1
  H  H185  1  0.79000000  0.00000000  0.80430000  1
  H  H186  1  0.71000000  0.50000000  0.30430000  1
  H  H187  1  0.21000000  0.00000000  0.80430000  1
  H  H188  1  0.71000000  0.50000000  0.69570000  1
  H  H189  1  0.21000000  0.00000000  0.19570000  1
  H  H190  1  0.29000000  0.50000000  0.69570000  1
  H  H191  1  0.79000000  0.00000000  0.19570000  1
  H  H192  1  0.76914000  0.64629000  0.52264000  1
  H  H193  1  0.87611000  0.66562000  0.53952000  1
  H  H194  1  0.86732000  0.78018000  0.47209000  1
  H  H195  1  0.75763000  0.77692000  0.48813000  1
  H  H196  1  0.23086000  0.64629000  0.52264000  1
  H  H197  1  0.12389000  0.66562000  0.53952000  1
  H  H198  1  0.13268000  0.78018000  0.47209000  1
  H  H199  1  0.24237000  0.77692000  0.48813000  1
  H  H200  1  0.76914000  0.35371000  0.47736000  1
  H  H201  1  0.87611000  0.33438000  0.46048000  1
  H  H202  1  0.86732000  0.21982000  0.52791000  1
  H  H203  1  0.75763000  0.22308000  0.51187000  1
  H  H204  1  0.23086000  0.35371000  0.47736000  1
  H  H205  1  0.12389000  0.33438000  0.46048000  1
  H  H206  1  0.13268000  0.21982000  0.52791000  1
  H  H207  1  0.24237000  0.22308000  0.51187000  1
  H  H208  1  0.36732000  0.28018000  0.97209000  1
  H  H209  1  0.25763000  0.27692000  0.98813000  1
  H  H210  1  0.73086000  0.14629000  0.97736000  1
  H  H211  1  0.62389000  0.16562000  0.96048000  1
  H  H212  1  0.26914000  0.14629000  0.02264000  1
  H  H213  1  0.37611000  0.16562000  0.03952000  1
  H  H214  1  0.63268000  0.28018000  0.02791000  1
  H  H215  1  0.74237000  0.27692000  0.01187000  1
  H  H216  1  0.63268000  0.71982000  0.97209000  1
  H  H217  1  0.74237000  0.72308000  0.98813000  1
  H  H218  1  0.26914000  0.85371000  0.97736000  1
  H  H219  1  0.37611000  0.83438000  0.96048000  1
  H  H220  1  0.36732000  0.71982000  0.02791000  1
  H  H221  1  0.25763000  0.72308000  0.01187000  1
  H  H222  1  0.73086000  0.85371000  0.02264000  1
  H  H223  1  0.62389000  0.83438000  0.03952000  1
  H  H224  1  0.56472000  0.71140000  0.00000000  1
  H  H225  1  0.43390000  0.85295000  0.00000000  1
  H  H226  1  0.57931000  0.86866000  0.96390000  1
  H  H227  1  0.61720000  0.84631000  0.00957000  1
  H  H228  1  0.55892000  0.88831000  0.01561000  1
  H  H229  1  0.44876000  0.67543000  0.01704000  1
  H  H230  1  0.41076000  0.69717000  0.97115000  1
  H  H231  1  0.38966000  0.71685000  0.02272000  1
  H  H232  1  0.43528000  0.28860000  0.00000000  1
  H  H233  1  0.56610000  0.14705000  0.00000000  1
  H  H234  1  0.44690000  0.11099000  0.01354000  1
  H  H235  1  0.41399000  0.13493000  0.96674000  1
  H  H236  1  0.38767000  0.15251000  0.01782000  1
  H  H237  1  0.58026000  0.30489000  0.96799000  1
  H  H238  1  0.61327000  0.28152000  0.01501000  1
  H  H239  1  0.55326000  0.32245000  0.01890000  1
  H  H240  1  0.93390000  0.64705000  0.50000000  1
  H  H241  1  0.93528000  0.21140000  0.50000000  1
  H  H242  1  0.06610000  0.35295000  0.50000000  1
  H  H243  1  0.06472000  0.78860000  0.50000000  1
  H  H244  1  0.88212000  0.78845000  0.51373000  1
  H  H245  1  0.91696000  0.80972000  0.46647000  1
  H  H246  1  0.94388000  0.82800000  0.51718000  1
  H  H247  1  0.88083000  0.35236000  0.51354000  1
  H  H248  1  0.91563000  0.37415000  0.46648000  1
  H  H249  1  0.94190000  0.39244000  0.51735000  1
  H  H250  1  0.08832000  0.19227000  0.46821000  1
  H  H251  1  0.05348000  0.17100000  0.51548000  1
  H  H252  1  0.11524000  0.21055000  0.51893000  1
  H  H253  1  0.09006000  0.62818000  0.46823000  1
  H  H254  1  0.05525000  0.60639000  0.51529000  1
  H  H255  1  0.11633000  0.64648000  0.51910000  1
  C  C256  1  0.39805000  0.35818000  0.40297000  1
  C  C257  1  0.09428000  0.28262000  0.09722000  1
  C  C258  1  0.36417000  0.37489000  0.36788000  1
  C  C259  1  0.29160000  0.40453000  0.30601000  1
  C  C260  1  0.14141000  0.33169000  0.19602000  1
  C  C261  1  0.12033000  0.31252000  0.12757000  1
  C  C262  1  0.32273000  0.40680000  0.37460000  1
  C  C263  1  0.18365000  0.44727000  0.20460000  1
  C  C264  1  0.33038000  0.37331000  0.29922000  1
  C  C265  1  0.37129000  0.35886000  0.33003000  1
  C  C266  1  0.22963000  0.38996000  0.24455000  1
  C  C267  1  0.20709000  0.47695000  0.23130000  1
  C  C268  1  0.14840000  0.35066000  0.11421000  1
  C  C269  1  0.25601000  0.41935000  0.27136000  1
  C  C270  1  0.19240000  0.40258000  0.21271000  1
  C  C271  1  0.28985000  0.42040000  0.34352000  1
  C  C272  1  0.17074000  0.37882000  0.14234000  1
  C  C273  1  0.16820000  0.37018000  0.18273000  1
  C  C274  1  0.11914000  0.30284000  0.16794000  1
  C  C275  1  0.24523000  0.46361000  0.26315000  1
  C  C276  1  0.21165000  0.32069000  0.48578000  1
  C  C277  1  0.15126000  0.31321000  0.48175000  1
  C  C278  1  0.15265000  0.24989000  0.51308000  1
  C  C279  1  0.21357000  0.25320000  0.50852000  1
  C  C280  1  0.89805000  0.85818000  0.90297000  1
  C  C281  1  0.59428000  0.78262000  0.59722000  1
  C  C282  1  0.86417000  0.87489000  0.86788000  1
  C  C283  1  0.79160000  0.90453000  0.80601000  1
  C  C284  1  0.64141000  0.83169000  0.69602000  1
  C  C285  1  0.62033000  0.81252000  0.62757000  1
  C  C286  1  0.82273000  0.90680000  0.87460000  1
  C  C287  1  0.68365000  0.94727000  0.70460000  1
  C  C288  1  0.83038000  0.87331000  0.79922000  1
  C  C289  1  0.87129000  0.85886000  0.83003000  1
  C  C290  1  0.72963000  0.88996000  0.74455000  1
  C  C291  1  0.70709000  0.97695000  0.73130000  1
  C  C292  1  0.64840000  0.85066000  0.61421000  1
  C  C293  1  0.75601000  0.91935000  0.77136000  1
  C  C294  1  0.69240000  0.90258000  0.71271000  1
  C  C295  1  0.78985000  0.92040000  0.84352000  1
  C  C296  1  0.67074000  0.87882000  0.64234000  1
  C  C297  1  0.66820000  0.87018000  0.68273000  1
  C  C298  1  0.61914000  0.80284000  0.66794000  1
  C  C299  1  0.74523000  0.96361000  0.76315000  1
  C  C300  1  0.60195000  0.64182000  0.40297000  1
  C  C301  1  0.90572000  0.71738000  0.09722000  1
  C  C302  1  0.63583000  0.62511000  0.36788000  1
  C  C303  1  0.70840000  0.59547000  0.30601000  1
  C  C304  1  0.85859000  0.66831000  0.19602000  1
  C  C305  1  0.87967000  0.68748000  0.12757000  1
  C  C306  1  0.67727000  0.59320000  0.37460000  1
  C  C307  1  0.81635000  0.55273000  0.20460000  1
  C  C308  1  0.66962000  0.62669000  0.29922000  1
  C  C309  1  0.62871000  0.64114000  0.33003000  1
  C  C310  1  0.77037000  0.61004000  0.24455000  1
  C  C311  1  0.79291000  0.52305000  0.23130000  1
  C  C312  1  0.85160000  0.64934000  0.11421000  1
  C  C313  1  0.74399000  0.58065000  0.27136000  1
  C  C314  1  0.80760000  0.59742000  0.21271000  1
  C  C315  1  0.71015000  0.57960000  0.34352000  1
  C  C316  1  0.82926000  0.62118000  0.14234000  1
  C  C317  1  0.83180000  0.62982000  0.18273000  1
  C  C318  1  0.88086000  0.69716000  0.16794000  1
  C  C319  1  0.75477000  0.53639000  0.26315000  1
  C  C320  1  0.10195000  0.14182000  0.90297000  1
  C  C321  1  0.40572000  0.21738000  0.59722000  1
  C  C322  1  0.13583000  0.12511000  0.86788000  1
  C  C323  1  0.20840000  0.09547000  0.80601000  1
  C  C324  1  0.35859000  0.16831000  0.69602000  1
  C  C325  1  0.37967000  0.18748000  0.62757000  1
  C  C326  1  0.17727000  0.09320000  0.87460000  1
  C  C327  1  0.31635000  0.05273000  0.70460000  1
  C  C328  1  0.16962000  0.12669000  0.79922000  1
  C  C329  1  0.12871000  0.14114000  0.83003000  1
  C  C330  1  0.27037000  0.11004000  0.74455000  1
  C  C331  1  0.29291000  0.02305000  0.73130000  1
  C  C332  1  0.35160000  0.14934000  0.61421000  1
  C  C333  1  0.24399000  0.08065000  0.77136000  1
  C  C334  1  0.30760000  0.09742000  0.71271000  1
  C  C335  1  0.21015000  0.07960000  0.84352000  1
  C  C336  1  0.32926000  0.12118000  0.64234000  1
  C  C337  1  0.33180000  0.12982000  0.68273000  1
  C  C338  1  0.38086000  0.19716000  0.66794000  1
  C  C339  1  0.25477000  0.03639000  0.76315000  1
  C  C340  1  0.60195000  0.35818000  0.59703000  1
  C  C341  1  0.90572000  0.28262000  0.90278000  1
  C  C342  1  0.63583000  0.37489000  0.63212000  1
  C  C343  1  0.70840000  0.40453000  0.69399000  1
  C  C344  1  0.85859000  0.33169000  0.80398000  1
  C  C345  1  0.87967000  0.31252000  0.87243000  1
  C  C346  1  0.67727000  0.40680000  0.62540000  1
  C  C347  1  0.81635000  0.44727000  0.79540000  1
  C  C348  1  0.66962000  0.37331000  0.70078000  1
  C  C349  1  0.62871000  0.35886000  0.66997000  1
  C  C350  1  0.77037000  0.38996000  0.75545000  1
  C  C351  1  0.79291000  0.47695000  0.76870000  1
  C  C352  1  0.85160000  0.35066000  0.88579000  1
  C  C353  1  0.74399000  0.41935000  0.72864000  1
  C  C354  1  0.80760000  0.40258000  0.78729000  1
  C  C355  1  0.71015000  0.42040000  0.65648000  1
  C  C356  1  0.82926000  0.37882000  0.85766000  1
  C  C357  1  0.83180000  0.37018000  0.81727000  1
  C  C358  1  0.88086000  0.30284000  0.83206000  1
  C  C359  1  0.75477000  0.46361000  0.73685000  1
  C  C360  1  0.10195000  0.85818000  0.09703000  1
  C  C361  1  0.40572000  0.78262000  0.40278000  1
  C  C362  1  0.13583000  0.87489000  0.13212000  1
  C  C363  1  0.20840000  0.90453000  0.19399000  1
  C  C364  1  0.35859000  0.83169000  0.30398000  1
  C  C365  1  0.37967000  0.81252000  0.37243000  1
  C  C366  1  0.17727000  0.90680000  0.12540000  1
  C  C367  1  0.31635000  0.94727000  0.29540000  1
  C  C368  1  0.16962000  0.87331000  0.20078000  1
  C  C369  1  0.12871000  0.85886000  0.16997000  1
  C  C370  1  0.27037000  0.88996000  0.25545000  1
  C  C371  1  0.29291000  0.97695000  0.26870000  1
  C  C372  1  0.35160000  0.85066000  0.38579000  1
  C  C373  1  0.24399000  0.91935000  0.22864000  1
  C  C374  1  0.30760000  0.90258000  0.28729000  1
  C  C375  1  0.21015000  0.92040000  0.15648000  1
  C  C376  1  0.32926000  0.87882000  0.35766000  1
  C  C377  1  0.33180000  0.87018000  0.31727000  1
  C  C378  1  0.38086000  0.80284000  0.33206000  1
  C  C379  1  0.25477000  0.96361000  0.23685000  1
  C  C380  1  0.39805000  0.64182000  0.59703000  1
  C  C381  1  0.09428000  0.71738000  0.90278000  1
  C  C382  1  0.36417000  0.62511000  0.63212000  1
  C  C383  1  0.29160000  0.59547000  0.69399000  1
  C  C384  1  0.14141000  0.66831000  0.80398000  1
  C  C385  1  0.12033000  0.68748000  0.87243000  1
  C  C386  1  0.32273000  0.59320000  0.62540000  1
  C  C387  1  0.18365000  0.55273000  0.79540000  1
  C  C388  1  0.33038000  0.62669000  0.70078000  1
  C  C389  1  0.37129000  0.64114000  0.66997000  1
  C  C390  1  0.22963000  0.61004000  0.75545000  1
  C  C391  1  0.20709000  0.52305000  0.76870000  1
  C  C392  1  0.14840000  0.64934000  0.88579000  1
  C  C393  1  0.25601000  0.58065000  0.72864000  1
  C  C394  1  0.19240000  0.59742000  0.78729000  1
  C  C395  1  0.28985000  0.57960000  0.65648000  1
  C  C396  1  0.17074000  0.62118000  0.85766000  1
  C  C397  1  0.16820000  0.62982000  0.81727000  1
  C  C398  1  0.11914000  0.69716000  0.83206000  1
  C  C399  1  0.24523000  0.53639000  0.73685000  1
  C  C400  1  0.21165000  0.67931000  0.51422000  1
  C  C401  1  0.15126000  0.68679000  0.51825000  1
  C  C402  1  0.15265000  0.75011000  0.48692000  1
  C  C403  1  0.21357000  0.74680000  0.49148000  1
  C  C404  1  0.89805000  0.14182000  0.09703000  1
  C  C405  1  0.59428000  0.21738000  0.40278000  1
  C  C406  1  0.86417000  0.12511000  0.13212000  1
  C  C407  1  0.79160000  0.09547000  0.19399000  1
  C  C408  1  0.64141000  0.16831000  0.30398000  1
  C  C409  1  0.62033000  0.18748000  0.37243000  1
  C  C410  1  0.82273000  0.09320000  0.12540000  1
  C  C411  1  0.68365000  0.05273000  0.29540000  1
  C  C412  1  0.83038000  0.12669000  0.20078000  1
  C  C413  1  0.87129000  0.14114000  0.16997000  1
  C  C414  1  0.72963000  0.11004000  0.25545000  1
  C  C415  1  0.70709000  0.02305000  0.26870000  1
  C  C416  1  0.64840000  0.14934000  0.38579000  1
  C  C417  1  0.75601000  0.08065000  0.22864000  1
  C  C418  1  0.69240000  0.09742000  0.28729000  1
  C  C419  1  0.78985000  0.07960000  0.15648000  1
  C  C420  1  0.67074000  0.12118000  0.35766000  1
  C  C421  1  0.66820000  0.12982000  0.31727000  1
  C  C422  1  0.61914000  0.19716000  0.33206000  1
  C  C423  1  0.74523000  0.03639000  0.23685000  1
  C  C424  1  0.60195000  0.64182000  0.59703000  1
  C  C425  1  0.90572000  0.71738000  0.90278000  1
  C  C426  1  0.63583000  0.62511000  0.63212000  1
  C  C427  1  0.70840000  0.59547000  0.69399000  1
  C  C428  1  0.85859000  0.66831000  0.80398000  1
  C  C429  1  0.87967000  0.68748000  0.87243000  1
  C  C430  1  0.67727000  0.59320000  0.62540000  1
  C  C431  1  0.81635000  0.55273000  0.79540000  1
  C  C432  1  0.66962000  0.62669000  0.70078000  1
  C  C433  1  0.62871000  0.64114000  0.66997000  1
  C  C434  1  0.77037000  0.61004000  0.75545000  1
  C  C435  1  0.79291000  0.52305000  0.76870000  1
  C  C436  1  0.85160000  0.64934000  0.88579000  1
  C  C437  1  0.74399000  0.58065000  0.72864000  1
  C  C438  1  0.80760000  0.59742000  0.78729000  1
  C  C439  1  0.71015000  0.57960000  0.65648000  1
  C  C440  1  0.82926000  0.62118000  0.85766000  1
  C  C441  1  0.83180000  0.62982000  0.81727000  1
  C  C442  1  0.88086000  0.69716000  0.83206000  1
  C  C443  1  0.75477000  0.53639000  0.73685000  1
  C  C444  1  0.78835000  0.67931000  0.51422000  1
  C  C445  1  0.84874000  0.68679000  0.51825000  1
  C  C446  1  0.84735000  0.75011000  0.48692000  1
  C  C447  1  0.78643000  0.74680000  0.49148000  1
  C  C448  1  0.10195000  0.14182000  0.09703000  1
  C  C449  1  0.40572000  0.21738000  0.40278000  1
  C  C450  1  0.13583000  0.12511000  0.13212000  1
  C  C451  1  0.20840000  0.09547000  0.19399000  1
  C  C452  1  0.35859000  0.16831000  0.30398000  1
  C  C453  1  0.37967000  0.18748000  0.37243000  1
  C  C454  1  0.17727000  0.09320000  0.12540000  1
  C  C455  1  0.31635000  0.05273000  0.29540000  1
  C  C456  1  0.16962000  0.12669000  0.20078000  1
  C  C457  1  0.12871000  0.14114000  0.16997000  1
  C  C458  1  0.27037000  0.11004000  0.25545000  1
  C  C459  1  0.29291000  0.02305000  0.26870000  1
  C  C460  1  0.35160000  0.14934000  0.38579000  1
  C  C461  1  0.24399000  0.08065000  0.22864000  1
  C  C462  1  0.30760000  0.09742000  0.28729000  1
  C  C463  1  0.21015000  0.07960000  0.15648000  1
  C  C464  1  0.32926000  0.12118000  0.35766000  1
  C  C465  1  0.33180000  0.12982000  0.31727000  1
  C  C466  1  0.38086000  0.19716000  0.33206000  1
  C  C467  1  0.25477000  0.03639000  0.23685000  1
  C  C468  1  0.28835000  0.17931000  0.01422000  1
  C  C469  1  0.34874000  0.18679000  0.01825000  1
  C  C470  1  0.34735000  0.25011000  0.98692000  1
  C  C471  1  0.28643000  0.24680000  0.99148000  1
  C  C472  1  0.39805000  0.35818000  0.59703000  1
  C  C473  1  0.09428000  0.28262000  0.90278000  1
  C  C474  1  0.36417000  0.37489000  0.63212000  1
  C  C475  1  0.29160000  0.40453000  0.69399000  1
  C  C476  1  0.14141000  0.33169000  0.80398000  1
  C  C477  1  0.12033000  0.31252000  0.87243000  1
  C  C478  1  0.32273000  0.40680000  0.62540000  1
  C  C479  1  0.18365000  0.44727000  0.79540000  1
  C  C480  1  0.33038000  0.37331000  0.70078000  1
  C  C481  1  0.37129000  0.35886000  0.66997000  1
  C  C482  1  0.22963000  0.38996000  0.75545000  1
  C  C483  1  0.20709000  0.47695000  0.76870000  1
  C  C484  1  0.14840000  0.35066000  0.88579000  1
  C  C485  1  0.25601000  0.41935000  0.72864000  1
  C  C486  1  0.19240000  0.40258000  0.78729000  1
  C  C487  1  0.28985000  0.42040000  0.65648000  1
  C  C488  1  0.17074000  0.37882000  0.85766000  1
  C  C489  1  0.16820000  0.37018000  0.81727000  1
  C  C490  1  0.11914000  0.30284000  0.83206000  1
  C  C491  1  0.24523000  0.46361000  0.73685000  1
  C  C492  1  0.89805000  0.85818000  0.09703000  1
  C  C493  1  0.59428000  0.78262000  0.40278000  1
  C  C494  1  0.86417000  0.87489000  0.13212000  1
  C  C495  1  0.79160000  0.90453000  0.19399000  1
  C  C496  1  0.64141000  0.83169000  0.30398000  1
  C  C497  1  0.62033000  0.81252000  0.37243000  1
  C  C498  1  0.82273000  0.90680000  0.12540000  1
  C  C499  1  0.68365000  0.94727000  0.29540000  1
  C  C500  1  0.83038000  0.87331000  0.20078000  1
  C  C501  1  0.87129000  0.85886000  0.16997000  1
  C  C502  1  0.72963000  0.88996000  0.25545000  1
  C  C503  1  0.70709000  0.97695000  0.26870000  1
  C  C504  1  0.64840000  0.85066000  0.38579000  1
  C  C505  1  0.75601000  0.91935000  0.22864000  1
  C  C506  1  0.69240000  0.90258000  0.28729000  1
  C  C507  1  0.78985000  0.92040000  0.15648000  1
  C  C508  1  0.67074000  0.87882000  0.35766000  1
  C  C509  1  0.66820000  0.87018000  0.31727000  1
  C  C510  1  0.61914000  0.80284000  0.33206000  1
  C  C511  1  0.74523000  0.96361000  0.23685000  1
  C  C512  1  0.71165000  0.82069000  0.01422000  1
  C  C513  1  0.65126000  0.81321000  0.01825000  1
  C  C514  1  0.65265000  0.74989000  0.98692000  1
  C  C515  1  0.71357000  0.75320000  0.99148000  1
  C  C516  1  0.39805000  0.64182000  0.40297000  1
  C  C517  1  0.09428000  0.71738000  0.09722000  1
  C  C518  1  0.36417000  0.62511000  0.36788000  1
  C  C519  1  0.29160000  0.59547000  0.30601000  1
  C  C520  1  0.14141000  0.66831000  0.19602000  1
  C  C521  1  0.12033000  0.68748000  0.12757000  1
  C  C522  1  0.32273000  0.59320000  0.37460000  1
  C  C523  1  0.18365000  0.55273000  0.20460000  1
  C  C524  1  0.33038000  0.62669000  0.29922000  1
  C  C525  1  0.37129000  0.64114000  0.33003000  1
  C  C526  1  0.22963000  0.61004000  0.24455000  1
  C  C527  1  0.20709000  0.52305000  0.23130000  1
  C  C528  1  0.14840000  0.64934000  0.11421000  1
  C  C529  1  0.25601000  0.58065000  0.27136000  1
  C  C530  1  0.19240000  0.59742000  0.21271000  1
  C  C531  1  0.28985000  0.57960000  0.34352000  1
  C  C532  1  0.17074000  0.62118000  0.14234000  1
  C  C533  1  0.16820000  0.62982000  0.18273000  1
  C  C534  1  0.11914000  0.69716000  0.16794000  1
  C  C535  1  0.24523000  0.53639000  0.26315000  1
  C  C536  1  0.89805000  0.14182000  0.90297000  1
  C  C537  1  0.59428000  0.21738000  0.59722000  1
  C  C538  1  0.86417000  0.12511000  0.86788000  1
  C  C539  1  0.79160000  0.09547000  0.80601000  1
  C  C540  1  0.64141000  0.16831000  0.69602000  1
  C  C541  1  0.62033000  0.18748000  0.62757000  1
  C  C542  1  0.82273000  0.09320000  0.87460000  1
  C  C543  1  0.68365000  0.05273000  0.70460000  1
  C  C544  1  0.83038000  0.12669000  0.79922000  1
  C  C545  1  0.87129000  0.14114000  0.83003000  1
  C  C546  1  0.72963000  0.11004000  0.74455000  1
  C  C547  1  0.70709000  0.02305000  0.73130000  1
  C  C548  1  0.64840000  0.14934000  0.61421000  1
  C  C549  1  0.75601000  0.08065000  0.77136000  1
  C  C550  1  0.69240000  0.09742000  0.71271000  1
  C  C551  1  0.78985000  0.07960000  0.84352000  1
  C  C552  1  0.67074000  0.12118000  0.64234000  1
  C  C553  1  0.66820000  0.12982000  0.68273000  1
  C  C554  1  0.61914000  0.19716000  0.66794000  1
  C  C555  1  0.74523000  0.03639000  0.76315000  1
  C  C556  1  0.71165000  0.17931000  0.98578000  1
  C  C557  1  0.65126000  0.18679000  0.98175000  1
  C  C558  1  0.65265000  0.25011000  0.01308000  1
  C  C559  1  0.71357000  0.24680000  0.00852000  1
  C  C560  1  0.60195000  0.35818000  0.40297000  1
  C  C561  1  0.90572000  0.28262000  0.09722000  1
  C  C562  1  0.63583000  0.37489000  0.36788000  1
  C  C563  1  0.70840000  0.40453000  0.30601000  1
  C  C564  1  0.85859000  0.33169000  0.19602000  1
  C  C565  1  0.87967000  0.31252000  0.12757000  1
  C  C566  1  0.67727000  0.40680000  0.37460000  1
  C  C567  1  0.81635000  0.44727000  0.20460000  1
  C  C568  1  0.66962000  0.37331000  0.29922000  1
  C  C569  1  0.62871000  0.35886000  0.33003000  1
  C  C570  1  0.77037000  0.38996000  0.24455000  1
  C  C571  1  0.79291000  0.47695000  0.23130000  1
  C  C572  1  0.85160000  0.35066000  0.11421000  1
  C  C573  1  0.74399000  0.41935000  0.27136000  1
  C  C574  1  0.80760000  0.40258000  0.21271000  1
  C  C575  1  0.71015000  0.42040000  0.34352000  1
  C  C576  1  0.82926000  0.37882000  0.14234000  1
  C  C577  1  0.83180000  0.37018000  0.18273000  1
  C  C578  1  0.88086000  0.30284000  0.16794000  1
  C  C579  1  0.75477000  0.46361000  0.26315000  1
  C  C580  1  0.78835000  0.32069000  0.48578000  1
  C  C581  1  0.84874000  0.31321000  0.48175000  1
  C  C582  1  0.84735000  0.24989000  0.51308000  1
  C  C583  1  0.78643000  0.25320000  0.50852000  1
  C  C584  1  0.10195000  0.85818000  0.90297000  1
  C  C585  1  0.40572000  0.78262000  0.59722000  1
  C  C586  1  0.13583000  0.87489000  0.86788000  1
  C  C587  1  0.20840000  0.90453000  0.80601000  1
  C  C588  1  0.35859000  0.83169000  0.69602000  1
  C  C589  1  0.37967000  0.81252000  0.62757000  1
  C  C590  1  0.17727000  0.90680000  0.87460000  1
  C  C591  1  0.31635000  0.94727000  0.70460000  1
  C  C592  1  0.16962000  0.87331000  0.79922000  1
  C  C593  1  0.12871000  0.85886000  0.83003000  1
  C  C594  1  0.27037000  0.88996000  0.74455000  1
  C  C595  1  0.29291000  0.97695000  0.73130000  1
  C  C596  1  0.35160000  0.85066000  0.61421000  1
  C  C597  1  0.24399000  0.91935000  0.77136000  1
  C  C598  1  0.30760000  0.90258000  0.71271000  1
  C  C599  1  0.21015000  0.92040000  0.84352000  1
  C  C600  1  0.32926000  0.87882000  0.64234000  1
  C  C601  1  0.33180000  0.87018000  0.68273000  1
  C  C602  1  0.38086000  0.80284000  0.66794000  1
  C  C603  1  0.25477000  0.96361000  0.76315000  1
  C  C604  1  0.28835000  0.82069000  0.98578000  1
  C  C605  1  0.34874000  0.81321000  0.98175000  1
  C  C606  1  0.34735000  0.74989000  0.01308000  1
  C  C607  1  0.28643000  0.75320000  0.00852000  1
  C  C608  1  0.31552000  0.29047000  0.50000000  1
  C  C609  1  0.24990000  0.28857000  0.50000000  1
  C  C610  1  0.11435000  0.28247000  0.50000000  1
  C  C611  1  0.04840000  0.28206000  0.50000000  1
  C  C612  1  0.03126000  0.32631000  0.50000000  1
  C  C613  1  0.03047000  0.23846000  0.50000000  1
  C  C614  1  0.81552000  0.79047000  0.00000000  1
  C  C615  1  0.74990000  0.78857000  0.00000000  1
  C  C616  1  0.61435000  0.78247000  0.00000000  1
  C  C617  1  0.54840000  0.78206000  0.00000000  1
  C  C618  1  0.53126000  0.82631000  0.00000000  1
  C  C619  1  0.53047000  0.73846000  0.00000000  1
  C  C620  1  0.68448000  0.70953000  0.50000000  1
  C  C621  1  0.75010000  0.71143000  0.50000000  1
  C  C622  1  0.88565000  0.71753000  0.50000000  1
  C  C623  1  0.95160000  0.71794000  0.50000000  1
  C  C624  1  0.96874000  0.67369000  0.50000000  1
  C  C625  1  0.96953000  0.76154000  0.50000000  1
  C  C626  1  0.18448000  0.20953000  0.00000000  1
  C  C627  1  0.25010000  0.21143000  0.00000000  1
  C  C628  1  0.38565000  0.21753000  0.00000000  1
  C  C629  1  0.45160000  0.21794000  0.00000000  1
  C  C630  1  0.46874000  0.17369000  0.00000000  1
  C  C631  1  0.46953000  0.26154000  0.00000000  1
  C  C632  1  0.68448000  0.29047000  0.50000000  1
  C  C633  1  0.75010000  0.28857000  0.50000000  1
  C  C634  1  0.88565000  0.28247000  0.50000000  1
  C  C635  1  0.95160000  0.28206000  0.50000000  1
  C  C636  1  0.96874000  0.32631000  0.50000000  1
  C  C637  1  0.96953000  0.23846000  0.50000000  1
  C  C638  1  0.18448000  0.79047000  0.00000000  1
  C  C639  1  0.25010000  0.78857000  0.00000000  1
  C  C640  1  0.38565000  0.78247000  0.00000000  1
  C  C641  1  0.45160000  0.78206000  0.00000000  1
  C  C642  1  0.46874000  0.82631000  0.00000000  1
  C  C643  1  0.46953000  0.73846000  0.00000000  1
  C  C644  1  0.31552000  0.70953000  0.50000000  1
  C  C645  1  0.24990000  0.71143000  0.50000000  1
  C  C646  1  0.11435000  0.71753000  0.50000000  1
  C  C647  1  0.04840000  0.71794000  0.50000000  1
  C  C648  1  0.03126000  0.67369000  0.50000000  1
  C  C649  1  0.03047000  0.76154000  0.50000000  1
  C  C650  1  0.81552000  0.20953000  0.00000000  1
  C  C651  1  0.74990000  0.21143000  0.00000000  1
  C  C652  1  0.61435000  0.21753000  0.00000000  1
  C  C653  1  0.54840000  0.21794000  0.00000000  1
  C  C654  1  0.53126000  0.17369000  0.00000000  1
  C  C655  1  0.53047000  0.26154000  0.00000000  1
  C  C656  1  0.57359000  0.85887000  0.99714000  1
  C  C657  1  0.42779000  0.70548000  0.00286000  1
  C  C658  1  0.42770000  0.14176000  0.99951000  1
  C  C659  1  0.57092000  0.29388000  0.00049000  1
  C  C660  1  0.92525000  0.79938000  0.49930000  1
  C  C661  1  0.92387000  0.36374000  0.49930000  1
  C  C662  1  0.07475000  0.20062000  0.50070000  1
  C  C663  1  0.07613000  0.63626000  0.50070000  1
  N  N664  1  0.26668000  0.50000000  0.28287000  1
  N  N665  1  0.76668000  0.00000000  0.78287000  1
  N  N666  1  0.73332000  0.50000000  0.28287000  1
  N  N667  1  0.23332000  0.00000000  0.78287000  1
  N  N668  1  0.73332000  0.50000000  0.71713000  1
  N  N669  1  0.23332000  0.00000000  0.21713000  1
  N  N670  1  0.26668000  0.50000000  0.71713000  1
  N  N671  1  0.76668000  0.00000000  0.21713000  1
  O  O672  1  0.42462000  0.29060000  0.46274000  1
  O  O673  1  0.10847000  0.29036000  0.05986000  1
  O  O674  1  0.44110000  0.33241000  0.39134000  1
  O  O675  1  0.05947000  0.25436000  0.10885000  1
  O  O676  1  0.38946000  0.36894000  0.43797000  1
  O  O677  1  0.92462000  0.79060000  0.96274000  1
  O  O678  1  0.60847000  0.79036000  0.55986000  1
  O  O679  1  0.94110000  0.83241000  0.89134000  1
  O  O680  1  0.55947000  0.75436000  0.60885000  1
  O  O681  1  0.88946000  0.86894000  0.93797000  1
  O  O682  1  0.57538000  0.70940000  0.46274000  1
  O  O683  1  0.89153000  0.70964000  0.05986000  1
  O  O684  1  0.55890000  0.66759000  0.39134000  1
  O  O685  1  0.94053000  0.74564000  0.10885000  1
  O  O686  1  0.61054000  0.63106000  0.43797000  1
  O  O687  1  0.07538000  0.20940000  0.96274000  1
  O  O688  1  0.39153000  0.20964000  0.55986000  1
  O  O689  1  0.05890000  0.16759000  0.89134000  1
  O  O690  1  0.44053000  0.24564000  0.60885000  1
  O  O691  1  0.11054000  0.13106000  0.93797000  1
  O  O692  1  0.57538000  0.29060000  0.53726000  1
  O  O693  1  0.89153000  0.29036000  0.94014000  1
  O  O694  1  0.55890000  0.33241000  0.60866000  1
  O  O695  1  0.94053000  0.25436000  0.89115000  1
  O  O696  1  0.61054000  0.36894000  0.56203000  1
  O  O697  1  0.07538000  0.79060000  0.03726000  1
  O  O698  1  0.39153000  0.79036000  0.44014000  1
  O  O699  1  0.05890000  0.83241000  0.10866000  1
  O  O700  1  0.44053000  0.75436000  0.39115000  1
  O  O701  1  0.11054000  0.86894000  0.06203000  1
  O  O702  1  0.42462000  0.70940000  0.53726000  1
  O  O703  1  0.10847000  0.70964000  0.94014000  1
  O  O704  1  0.44110000  0.66759000  0.60866000  1
  O  O705  1  0.05947000  0.74564000  0.89115000  1
  O  O706  1  0.38946000  0.63106000  0.56203000  1
  O  O707  1  0.92462000  0.20940000  0.03726000  1
  O  O708  1  0.60847000  0.20964000  0.44014000  1
  O  O709  1  0.94110000  0.16759000  0.10866000  1
  O  O710  1  0.55947000  0.24564000  0.39115000  1
  O  O711  1  0.88946000  0.13106000  0.06203000  1
  O  O712  1  0.57538000  0.70940000  0.53726000  1
  O  O713  1  0.89153000  0.70964000  0.94014000  1
  O  O714  1  0.55890000  0.66759000  0.60866000  1
  O  O715  1  0.94053000  0.74564000  0.89115000  1
  O  O716  1  0.61054000  0.63106000  0.56203000  1
  O  O717  1  0.07538000  0.20940000  0.03726000  1
  O  O718  1  0.39153000  0.20964000  0.44014000  1
  O  O719  1  0.05890000  0.16759000  0.10866000  1
  O  O720  1  0.44053000  0.24564000  0.39115000  1
  O  O721  1  0.11054000  0.13106000  0.06203000  1
  O  O722  1  0.42462000  0.29060000  0.53726000  1
  O  O723  1  0.10847000  0.29036000  0.94014000  1
  O  O724  1  0.44110000  0.33241000  0.60866000  1
  O  O725  1  0.05947000  0.25436000  0.89115000  1
  O  O726  1  0.38946000  0.36894000  0.56203000  1
  O  O727  1  0.92462000  0.79060000  0.03726000  1
  O  O728  1  0.60847000  0.79036000  0.44014000  1
  O  O729  1  0.94110000  0.83241000  0.10866000  1
  O  O730  1  0.55947000  0.75436000  0.39115000  1
  O  O731  1  0.88946000  0.86894000  0.06203000  1
  O  O732  1  0.42462000  0.70940000  0.46274000  1
  O  O733  1  0.10847000  0.70964000  0.05986000  1
  O  O734  1  0.44110000  0.66759000  0.39134000  1
  O  O735  1  0.05947000  0.74564000  0.10885000  1
  O  O736  1  0.38946000  0.63106000  0.43797000  1
  O  O737  1  0.92462000  0.20940000  0.96274000  1
  O  O738  1  0.60847000  0.20964000  0.55986000  1
  O  O739  1  0.94110000  0.16759000  0.89134000  1
  O  O740  1  0.55947000  0.24564000  0.60885000  1
  O  O741  1  0.88946000  0.13106000  0.93797000  1
  O  O742  1  0.57538000  0.29060000  0.46274000  1
  O  O743  1  0.89153000  0.29036000  0.05986000  1
  O  O744  1  0.55890000  0.33241000  0.39134000  1
  O  O745  1  0.94053000  0.25436000  0.10885000  1
  O  O746  1  0.61054000  0.36894000  0.43797000  1
  O  O747  1  0.07538000  0.79060000  0.96274000  1
  O  O748  1  0.39153000  0.79036000  0.55986000  1
  O  O749  1  0.05890000  0.83241000  0.89134000  1
  O  O750  1  0.44053000  0.75436000  0.60885000  1
  O  O751  1  0.11054000  0.86894000  0.93797000  1
  O  O752  1  0.50000000  0.23355000  0.46372000  1
  O  O753  1  0.50000000  0.34812000  0.46339000  1
  O  O754  1  0.00000000  0.73355000  0.96372000  1
  O  O755  1  0.00000000  0.84812000  0.96339000  1
  O  O756  1  0.50000000  0.76645000  0.46372000  1
  O  O757  1  0.50000000  0.65188000  0.46339000  1
  O  O758  1  0.00000000  0.26645000  0.96372000  1
  O  O759  1  0.00000000  0.15188000  0.96339000  1
  O  O760  1  0.50000000  0.23355000  0.53628000  1
  O  O761  1  0.50000000  0.34812000  0.53661000  1
  O  O762  1  0.00000000  0.73355000  0.03628000  1
  O  O763  1  0.00000000  0.84812000  0.03661000  1
  O  O764  1  0.50000000  0.76645000  0.53628000  1
  O  O765  1  0.50000000  0.65188000  0.53661000  1
  O  O766  1  0.00000000  0.26645000  0.03628000  1
  O  O767  1  0.00000000  0.15188000  0.03661000  1
  O  O768  1  0.32867000  0.33432000  0.50000000  1
  O  O769  1  0.33026000  0.24606000  0.50000000  1
  O  O770  1  0.82867000  0.83432000  0.00000000  1
  O  O771  1  0.83026000  0.74606000  0.00000000  1
  O  O772  1  0.67133000  0.66568000  0.50000000  1
  O  O773  1  0.66974000  0.75394000  0.50000000  1
  O  O774  1  0.17133000  0.16568000  0.00000000  1
  O  O775  1  0.16974000  0.25394000  0.00000000  1
  O  O776  1  0.67133000  0.33432000  0.50000000  1
  O  O777  1  0.66974000  0.24606000  0.50000000  1
  O  O778  1  0.17133000  0.83432000  0.00000000  1
  O  O779  1  0.16974000  0.74606000  0.00000000  1
  O  O780  1  0.32867000  0.66568000  0.50000000  1
  O  O781  1  0.33026000  0.75394000  0.50000000  1
  O  O782  1  0.82867000  0.16568000  0.00000000  1
  O  O783  1  0.83026000  0.25394000  0.00000000  1
