# generated using pymatgen
data_Zr3H30C53NO15
_symmetry_space_group_name_H-M   'P 1'
_cell_length_a   23.20300000
_cell_length_b   31.02300000
_cell_length_c   33.33200000
_cell_angle_alpha   90.00000000
_cell_angle_beta   90.00000000
_cell_angle_gamma   90.00000000
_symmetry_Int_Tables_number   1
_chemical_formula_structural   Zr3H30C53NO15
_chemical_formula_sum   'Zr24 H240 C424 N8 O120'
_cell_volume   23993.26253111
_cell_formula_units_Z   8
loop_
 _symmetry_equiv_pos_site_id
 _symmetry_equiv_pos_as_xyz
  1  'x, y, z'
loop_
 _atom_site_type_symbol
 _atom_site_label
 _atom_site_symmetry_multiplicity
 _atom_site_fract_x
 _atom_site_fract_y
 _atom_site_fract_z
 _atom_site_occupancy
  Zr  Zr0  1  0.07509000  0.00000000  0.33399000  1
  Zr  Zr1  1  0.07531000  0.00000000  0.22996000  1
  Zr  Zr2  1  0.57509000  0.50000000  0.83399000  1
  Zr  Zr3  1  0.57531000  0.50000000  0.72996000  1
  Zr  Zr4  1  0.92491000  0.00000000  0.33399000  1
  Zr  Zr5  1  0.92469000  0.00000000  0.22996000  1
  Zr  Zr6  1  0.42491000  0.50000000  0.83399000  1
  Zr  Zr7  1  0.42469000  0.50000000  0.72996000  1
  Zr  Zr8  1  0.92491000  0.00000000  0.66601000  1
  Zr  Zr9  1  0.92469000  0.00000000  0.77004000  1
  Zr  Zr10  1  0.42491000  0.50000000  0.16601000  1
  Zr  Zr11  1  0.42469000  0.50000000  0.27004000  1
  Zr  Zr12  1  0.07509000  0.00000000  0.66601000  1
  Zr  Zr13  1  0.07531000  0.00000000  0.77004000  1
  Zr  Zr14  1  0.57509000  0.50000000  0.16601000  1
  Zr  Zr15  1  0.57531000  0.50000000  0.27004000  1
  Zr  Zr16  1  0.00000000  0.08013000  0.28155000  1
  Zr  Zr17  1  0.50000000  0.58013000  0.78155000  1
  Zr  Zr18  1  0.00000000  0.91987000  0.28155000  1
  Zr  Zr19  1  0.50000000  0.41987000  0.78155000  1
  Zr  Zr20  1  0.00000000  0.08013000  0.71845000  1
  Zr  Zr21  1  0.50000000  0.58013000  0.21845000  1
  Zr  Zr22  1  0.00000000  0.91987000  0.71845000  1
  Zr  Zr23  1  0.50000000  0.41987000  0.21845000  1
  H  H24  1  0.16510000  0.09320000  0.41160000  1
  H  H25  1  0.21440000  0.14640000  0.44910000  1
  H  H26  1  0.15490000  0.23790000  0.37290000  1
  H  H27  1  0.10390000  0.18540000  0.33730000  1
  H  H28  1  0.33660000  0.31950000  0.46100000  1
  H  H29  1  0.26290000  0.25310000  0.37150000  1
  H  H30  1  0.32720000  0.37070000  0.41170000  1
  H  H31  1  0.36610000  0.41550000  0.36050000  1
  H  H32  1  0.39180000  0.31910000  0.28810000  1
  H  H33  1  0.34870000  0.27260000  0.33950000  1
  H  H34  1  0.66510000  0.59320000  0.91160000  1
  H  H35  1  0.71440000  0.64640000  0.94910000  1
  H  H36  1  0.65490000  0.73790000  0.87290000  1
  H  H37  1  0.60390000  0.68540000  0.83730000  1
  H  H38  1  0.83660000  0.81950000  0.96100000  1
  H  H39  1  0.76290000  0.75310000  0.87150000  1
  H  H40  1  0.82720000  0.87070000  0.91170000  1
  H  H41  1  0.86610000  0.91550000  0.86050000  1
  H  H42  1  0.89180000  0.81910000  0.78810000  1
  H  H43  1  0.84870000  0.77260000  0.83950000  1
  H  H44  1  0.83490000  0.90680000  0.41160000  1
  H  H45  1  0.78560000  0.85360000  0.44910000  1
  H  H46  1  0.84510000  0.76210000  0.37290000  1
  H  H47  1  0.89610000  0.81460000  0.33730000  1
  H  H48  1  0.66340000  0.68050000  0.46100000  1
  H  H49  1  0.73710000  0.74690000  0.37150000  1
  H  H50  1  0.67280000  0.62930000  0.41170000  1
  H  H51  1  0.63390000  0.58450000  0.36050000  1
  H  H52  1  0.60820000  0.68090000  0.28810000  1
  H  H53  1  0.65130000  0.72740000  0.33950000  1
  H  H54  1  0.33490000  0.40680000  0.91160000  1
  H  H55  1  0.28560000  0.35360000  0.94910000  1
  H  H56  1  0.34510000  0.26210000  0.87290000  1
  H  H57  1  0.39610000  0.31460000  0.83730000  1
  H  H58  1  0.16340000  0.18050000  0.96100000  1
  H  H59  1  0.23710000  0.24690000  0.87150000  1
  H  H60  1  0.17280000  0.12930000  0.91170000  1
  H  H61  1  0.13390000  0.08450000  0.86050000  1
  H  H62  1  0.10820000  0.18090000  0.78810000  1
  H  H63  1  0.15130000  0.22740000  0.83950000  1
  H  H64  1  0.83490000  0.09320000  0.58840000  1
  H  H65  1  0.78560000  0.14640000  0.55090000  1
  H  H66  1  0.84510000  0.23790000  0.62710000  1
  H  H67  1  0.89610000  0.18540000  0.66270000  1
  H  H68  1  0.66340000  0.31950000  0.53900000  1
  H  H69  1  0.73710000  0.25310000  0.62850000  1
  H  H70  1  0.67280000  0.37070000  0.58830000  1
  H  H71  1  0.63390000  0.41550000  0.63950000  1
  H  H72  1  0.60820000  0.31910000  0.71190000  1
  H  H73  1  0.65130000  0.27260000  0.66050000  1
  H  H74  1  0.33490000  0.59320000  0.08840000  1
  H  H75  1  0.28560000  0.64640000  0.05090000  1
  H  H76  1  0.34510000  0.73790000  0.12710000  1
  H  H77  1  0.39610000  0.68540000  0.16270000  1
  H  H78  1  0.16340000  0.81950000  0.03900000  1
  H  H79  1  0.23710000  0.75310000  0.12850000  1
  H  H80  1  0.17280000  0.87070000  0.08830000  1
  H  H81  1  0.13390000  0.91550000  0.13950000  1
  H  H82  1  0.10820000  0.81910000  0.21190000  1
  H  H83  1  0.15130000  0.77260000  0.16050000  1
  H  H84  1  0.16510000  0.90680000  0.58840000  1
  H  H85  1  0.21440000  0.85360000  0.55090000  1
  H  H86  1  0.15490000  0.76210000  0.62710000  1
  H  H87  1  0.10390000  0.81460000  0.66270000  1
  H  H88  1  0.33660000  0.68050000  0.53900000  1
  H  H89  1  0.26290000  0.74690000  0.62850000  1
  H  H90  1  0.32720000  0.62930000  0.58830000  1
  H  H91  1  0.36610000  0.58450000  0.63950000  1
  H  H92  1  0.39180000  0.68090000  0.71190000  1
  H  H93  1  0.34870000  0.72740000  0.66050000  1
  H  H94  1  0.66510000  0.40680000  0.08840000  1
  H  H95  1  0.71440000  0.35360000  0.05090000  1
  H  H96  1  0.65490000  0.26210000  0.12710000  1
  H  H97  1  0.60390000  0.31460000  0.16270000  1
  H  H98  1  0.83660000  0.18050000  0.03900000  1
  H  H99  1  0.76290000  0.24690000  0.12850000  1
  H  H100  1  0.82720000  0.12930000  0.08830000  1
  H  H101  1  0.86610000  0.08450000  0.13950000  1
  H  H102  1  0.89180000  0.18090000  0.21190000  1
  H  H103  1  0.84870000  0.22740000  0.16050000  1
  H  H104  1  0.83490000  0.90680000  0.58840000  1
  H  H105  1  0.78560000  0.85360000  0.55090000  1
  H  H106  1  0.84510000  0.76210000  0.62710000  1
  H  H107  1  0.89610000  0.81460000  0.66270000  1
  H  H108  1  0.66340000  0.68050000  0.53900000  1
  H  H109  1  0.73710000  0.74690000  0.62850000  1
  H  H110  1  0.67280000  0.62930000  0.58830000  1
  H  H111  1  0.63390000  0.58450000  0.63950000  1
  H  H112  1  0.60820000  0.68090000  0.71190000  1
  H  H113  1  0.65130000  0.72740000  0.66050000  1
  H  H114  1  0.33490000  0.40680000  0.08840000  1
  H  H115  1  0.28560000  0.35360000  0.05090000  1
  H  H116  1  0.34510000  0.26210000  0.12710000  1
  H  H117  1  0.39610000  0.31460000  0.16270000  1
  H  H118  1  0.16340000  0.18050000  0.03900000  1
  H  H119  1  0.23710000  0.24690000  0.12850000  1
  H  H120  1  0.17280000  0.12930000  0.08830000  1
  H  H121  1  0.13390000  0.08450000  0.13950000  1
  H  H122  1  0.10820000  0.18090000  0.21190000  1
  H  H123  1  0.15130000  0.22740000  0.16050000  1
  H  H124  1  0.16510000  0.09320000  0.58840000  1
  H  H125  1  0.21440000  0.14640000  0.55090000  1
  H  H126  1  0.15490000  0.23790000  0.62710000  1
  H  H127  1  0.10390000  0.18540000  0.66270000  1
  H  H128  1  0.33660000  0.31950000  0.53900000  1
  H  H129  1  0.26290000  0.25310000  0.62850000  1
  H  H130  1  0.32720000  0.37070000  0.58830000  1
  H  H131  1  0.36610000  0.41550000  0.63950000  1
  H  H132  1  0.39180000  0.31910000  0.71190000  1
  H  H133  1  0.34870000  0.27260000  0.66050000  1
  H  H134  1  0.66510000  0.59320000  0.08840000  1
  H  H135  1  0.71440000  0.64640000  0.05090000  1
  H  H136  1  0.65490000  0.73790000  0.12710000  1
  H  H137  1  0.60390000  0.68540000  0.16270000  1
  H  H138  1  0.83660000  0.81950000  0.03900000  1
  H  H139  1  0.76290000  0.75310000  0.12850000  1
  H  H140  1  0.82720000  0.87070000  0.08830000  1
  H  H141  1  0.86610000  0.91550000  0.13950000  1
  H  H142  1  0.89180000  0.81910000  0.21190000  1
  H  H143  1  0.84870000  0.77260000  0.16050000  1
  H  H144  1  0.16510000  0.90680000  0.41160000  1
  H  H145  1  0.21440000  0.85360000  0.44910000  1
  H  H146  1  0.15490000  0.76210000  0.37290000  1
  H  H147  1  0.10390000  0.81460000  0.33730000  1
  H  H148  1  0.33660000  0.68050000  0.46100000  1
  H  H149  1  0.26290000  0.74690000  0.37150000  1
  H  H150  1  0.32720000  0.62930000  0.41170000  1
  H  H151  1  0.36610000  0.58450000  0.36050000  1
  H  H152  1  0.39180000  0.68090000  0.28810000  1
  H  H153  1  0.34870000  0.72740000  0.33950000  1
  H  H154  1  0.66510000  0.40680000  0.91160000  1
  H  H155  1  0.71440000  0.35360000  0.94910000  1
  H  H156  1  0.65490000  0.26210000  0.87290000  1
  H  H157  1  0.60390000  0.31460000  0.83730000  1
  H  H158  1  0.83660000  0.18050000  0.96100000  1
  H  H159  1  0.76290000  0.24690000  0.87150000  1
  H  H160  1  0.82720000  0.12930000  0.91170000  1
  H  H161  1  0.86610000  0.08450000  0.86050000  1
  H  H162  1  0.89180000  0.18090000  0.78810000  1
  H  H163  1  0.84870000  0.22740000  0.83950000  1
  H  H164  1  0.83490000  0.09320000  0.41160000  1
  H  H165  1  0.78560000  0.14640000  0.44910000  1
  H  H166  1  0.84510000  0.23790000  0.37290000  1
  H  H167  1  0.89610000  0.18540000  0.33730000  1
  H  H168  1  0.66340000  0.31950000  0.46100000  1
  H  H169  1  0.73710000  0.25310000  0.37150000  1
  H  H170  1  0.67280000  0.37070000  0.41170000  1
  H  H171  1  0.63390000  0.41550000  0.36050000  1
  H  H172  1  0.60820000  0.31910000  0.28810000  1
  H  H173  1  0.65130000  0.27260000  0.33950000  1
  H  H174  1  0.33490000  0.59320000  0.91160000  1
  H  H175  1  0.28560000  0.64640000  0.94910000  1
  H  H176  1  0.34510000  0.73790000  0.87290000  1
  H  H177  1  0.39610000  0.68540000  0.83730000  1
  H  H178  1  0.16340000  0.81950000  0.96100000  1
  H  H179  1  0.23710000  0.75310000  0.87150000  1
  H  H180  1  0.17280000  0.87070000  0.91170000  1
  H  H181  1  0.13390000  0.91550000  0.86050000  1
  H  H182  1  0.10820000  0.81910000  0.78810000  1
  H  H183  1  0.15130000  0.77260000  0.83950000  1
  H  H184  1  0.26610000  0.00000000  0.34180000  1
  H  H185  1  0.36590000  0.00000000  0.34310000  1
  H  H186  1  0.36560000  0.00000000  0.22560000  1
  H  H187  1  0.26760000  0.00000000  0.22220000  1
  H  H188  1  0.08760000  0.00000000  0.46380000  1
  H  H189  1  0.76610000  0.50000000  0.84180000  1
  H  H190  1  0.86590000  0.50000000  0.84310000  1
  H  H191  1  0.86560000  0.50000000  0.72560000  1
  H  H192  1  0.76760000  0.50000000  0.72220000  1
  H  H193  1  0.58760000  0.50000000  0.96380000  1
  H  H194  1  0.73390000  0.00000000  0.34180000  1
  H  H195  1  0.63410000  0.00000000  0.34310000  1
  H  H196  1  0.63440000  0.00000000  0.22560000  1
  H  H197  1  0.73240000  0.00000000  0.22220000  1
  H  H198  1  0.91240000  0.00000000  0.46380000  1
  H  H199  1  0.23390000  0.50000000  0.84180000  1
  H  H200  1  0.13410000  0.50000000  0.84310000  1
  H  H201  1  0.13440000  0.50000000  0.72560000  1
  H  H202  1  0.23240000  0.50000000  0.72220000  1
  H  H203  1  0.41240000  0.50000000  0.96380000  1
  H  H204  1  0.73390000  0.00000000  0.65820000  1
  H  H205  1  0.63410000  0.00000000  0.65690000  1
  H  H206  1  0.63440000  0.00000000  0.77440000  1
  H  H207  1  0.73240000  0.00000000  0.77780000  1
  H  H208  1  0.91240000  0.00000000  0.53620000  1
  H  H209  1  0.23390000  0.50000000  0.15820000  1
  H  H210  1  0.13410000  0.50000000  0.15690000  1
  H  H211  1  0.13440000  0.50000000  0.27440000  1
  H  H212  1  0.23240000  0.50000000  0.27780000  1
  H  H213  1  0.41240000  0.50000000  0.03620000  1
  H  H214  1  0.26610000  0.00000000  0.65820000  1
  H  H215  1  0.36590000  0.00000000  0.65690000  1
  H  H216  1  0.36560000  0.00000000  0.77440000  1
  H  H217  1  0.26760000  0.00000000  0.77780000  1
  H  H218  1  0.08760000  0.00000000  0.53620000  1
  H  H219  1  0.76610000  0.50000000  0.15820000  1
  H  H220  1  0.86590000  0.50000000  0.15690000  1
  H  H221  1  0.86560000  0.50000000  0.27440000  1
  H  H222  1  0.76760000  0.50000000  0.27780000  1
  H  H223  1  0.58760000  0.50000000  0.03620000  1
  H  H224  1  0.20640000  0.19440000  0.50000000  1
  H  H225  1  0.70640000  0.69440000  0.00000000  1
  H  H226  1  0.79360000  0.80560000  0.50000000  1
  H  H227  1  0.29360000  0.30560000  0.00000000  1
  H  H228  1  0.79360000  0.19440000  0.50000000  1
  H  H229  1  0.29360000  0.69440000  0.00000000  1
  H  H230  1  0.20640000  0.80560000  0.50000000  1
  H  H231  1  0.70640000  0.30560000  0.00000000  1
  H  H232  1  0.94587000  0.55188000  0.74116000  1
  H  H233  1  0.05472000  0.44171000  0.82363000  1
  H  H234  1  0.97035000  0.40868000  0.83832000  1
  H  H235  1  0.90463000  0.41986000  0.80802000  1
  H  H236  1  0.91707000  0.44939000  0.85586000  1
  H  H237  1  0.03646000  0.56314000  0.70691000  1
  H  H238  1  0.10591000  0.54628000  0.73007000  1
  H  H239  1  0.06364000  0.59124000  0.75249000  1
  H  H240  1  0.55413000  0.94812000  0.24116000  1
  H  H241  1  0.55413000  0.94812000  0.75884000  1
  H  H242  1  0.44528000  0.05829000  0.32363000  1
  H  H243  1  0.44528000  0.05829000  0.67637000  1
  H  H244  1  0.46715000  0.91462000  0.76876000  1
  H  H245  1  0.39764000  0.93617000  0.74939000  1
  H  H246  1  0.43309000  0.96214000  0.79327000  1
  H  H247  1  0.53889000  0.06498000  0.64100000  1
  H  H248  1  0.60630000  0.05019000  0.66799000  1
  H  H249  1  0.55902000  0.09363000  0.68804000  1
  H  H250  1  0.45346000  0.90810000  0.24518000  1
  H  H251  1  0.45173000  0.94885000  0.20421000  1
  H  H252  1  0.39198000  0.94643000  0.24141000  1
  H  H253  1  0.58544000  0.08493000  0.30589000  1
  H  H254  1  0.59126000  0.04831000  0.34995000  1
  H  H255  1  0.52808000  0.08491000  0.34494000  1
  H  H256  1  0.94587000  0.44812000  0.25884000  1
  H  H257  1  0.05472000  0.55829000  0.17637000  1
  H  H258  1  0.89255000  0.55558000  0.17524000  1
  H  H259  1  0.95595000  0.56590000  0.14238000  1
  H  H260  1  0.94851000  0.59518000  0.19086000  1
  H  H261  1  0.09744000  0.43072000  0.24271000  1
  H  H262  1  0.02923000  0.41501000  0.26822000  1
  H  H263  1  0.07446000  0.45914000  0.28923000  1
  C  C264  1  0.09890000  0.09660000  0.35220000  1
  C  C265  1  0.12680000  0.13440000  0.37260000  1
  C  C266  1  0.16250000  0.12210000  0.40440000  1
  C  C267  1  0.19510000  0.15360000  0.42560000  1
  C  C268  1  0.19750000  0.19600000  0.41030000  1
  C  C269  1  0.15870000  0.20900000  0.37960000  1
  C  C270  1  0.12600000  0.17770000  0.35940000  1
  C  C271  1  0.24620000  0.22200000  0.42870000  1
  C  C272  1  0.25310000  0.23450000  0.46460000  1
  C  C273  1  0.29660000  0.26430000  0.47880000  1
  C  C274  1  0.31790000  0.29470000  0.45220000  1
  C  C275  1  0.30930000  0.28590000  0.40900000  1
  C  C276  1  0.27310000  0.25520000  0.39840000  1
  C  C277  1  0.33380000  0.31300000  0.37800000  1
  C  C278  1  0.33850000  0.35930000  0.38720000  1
  C  C279  1  0.36200000  0.38620000  0.35530000  1
  C  C280  1  0.37890000  0.37130000  0.31780000  1
  C  C281  1  0.37760000  0.33100000  0.31180000  1
  C  C282  1  0.35130000  0.30180000  0.34530000  1
  C  C283  1  0.40720000  0.39710000  0.28670000  1
  C  C284  1  0.46950000  0.03200000  0.30670000  1
  C  C285  1  0.59890000  0.59660000  0.85220000  1
  C  C286  1  0.62680000  0.63440000  0.87260000  1
  C  C287  1  0.66250000  0.62210000  0.90440000  1
  C  C288  1  0.69510000  0.65360000  0.92560000  1
  C  C289  1  0.69750000  0.69600000  0.91030000  1
  C  C290  1  0.65870000  0.70900000  0.87960000  1
  C  C291  1  0.62600000  0.67770000  0.85940000  1
  C  C292  1  0.74620000  0.72200000  0.92870000  1
  C  C293  1  0.75310000  0.73450000  0.96460000  1
  C  C294  1  0.79660000  0.76430000  0.97880000  1
  C  C295  1  0.81790000  0.79470000  0.95220000  1
  C  C296  1  0.80930000  0.78590000  0.90900000  1
  C  C297  1  0.77310000  0.75520000  0.89840000  1
  C  C298  1  0.83380000  0.81300000  0.87800000  1
  C  C299  1  0.83850000  0.85930000  0.88720000  1
  C  C300  1  0.86200000  0.88620000  0.85530000  1
  C  C301  1  0.87890000  0.87130000  0.81780000  1
  C  C302  1  0.87760000  0.83100000  0.81180000  1
  C  C303  1  0.85130000  0.80180000  0.84530000  1
  C  C304  1  0.90720000  0.89710000  0.78670000  1
  C  C305  1  0.96983000  0.52840000  0.76150000  1
  C  C306  1  0.90110000  0.90340000  0.35220000  1
  C  C307  1  0.87320000  0.86560000  0.37260000  1
  C  C308  1  0.83750000  0.87790000  0.40440000  1
  C  C309  1  0.80490000  0.84640000  0.42560000  1
  C  C310  1  0.80250000  0.80400000  0.41030000  1
  C  C311  1  0.84130000  0.79100000  0.37960000  1
  C  C312  1  0.87400000  0.82230000  0.35940000  1
  C  C313  1  0.75380000  0.77800000  0.42870000  1
  C  C314  1  0.74690000  0.76550000  0.46460000  1
  C  C315  1  0.70340000  0.73570000  0.47880000  1
  C  C316  1  0.68210000  0.70530000  0.45220000  1
  C  C317  1  0.69070000  0.71410000  0.40900000  1
  C  C318  1  0.72690000  0.74480000  0.39840000  1
  C  C319  1  0.66620000  0.68700000  0.37800000  1
  C  C320  1  0.66150000  0.64070000  0.38720000  1
  C  C321  1  0.63800000  0.61380000  0.35530000  1
  C  C322  1  0.62110000  0.62870000  0.31780000  1
  C  C323  1  0.62240000  0.66900000  0.31180000  1
  C  C324  1  0.64870000  0.69820000  0.34530000  1
  C  C325  1  0.59280000  0.60290000  0.28670000  1
  C  C326  1  0.53017000  0.97160000  0.26150000  1
  C  C327  1  0.40110000  0.40340000  0.85220000  1
  C  C328  1  0.37320000  0.36560000  0.87260000  1
  C  C329  1  0.33750000  0.37790000  0.90440000  1
  C  C330  1  0.30490000  0.34640000  0.92560000  1
  C  C331  1  0.30250000  0.30400000  0.91030000  1
  C  C332  1  0.34130000  0.29100000  0.87960000  1
  C  C333  1  0.37400000  0.32230000  0.85940000  1
  C  C334  1  0.25380000  0.27800000  0.92870000  1
  C  C335  1  0.24690000  0.26550000  0.96460000  1
  C  C336  1  0.20340000  0.23570000  0.97880000  1
  C  C337  1  0.18210000  0.20530000  0.95220000  1
  C  C338  1  0.19070000  0.21410000  0.90900000  1
  C  C339  1  0.22690000  0.24480000  0.89840000  1
  C  C340  1  0.16620000  0.18700000  0.87800000  1
  C  C341  1  0.16150000  0.14070000  0.88720000  1
  C  C342  1  0.13800000  0.11380000  0.85530000  1
  C  C343  1  0.12110000  0.12870000  0.81780000  1
  C  C344  1  0.12240000  0.16900000  0.81180000  1
  C  C345  1  0.14870000  0.19820000  0.84530000  1
  C  C346  1  0.09280000  0.10290000  0.78670000  1
  C  C347  1  0.03050000  0.46800000  0.80670000  1
  C  C348  1  0.90110000  0.09660000  0.64780000  1
  C  C349  1  0.87320000  0.13440000  0.62740000  1
  C  C350  1  0.83750000  0.12210000  0.59560000  1
  C  C351  1  0.80490000  0.15360000  0.57440000  1
  C  C352  1  0.80250000  0.19600000  0.58970000  1
  C  C353  1  0.84130000  0.20900000  0.62040000  1
  C  C354  1  0.87400000  0.17770000  0.64060000  1
  C  C355  1  0.75380000  0.22200000  0.57130000  1
  C  C356  1  0.74690000  0.23450000  0.53540000  1
  C  C357  1  0.70340000  0.26430000  0.52120000  1
  C  C358  1  0.68210000  0.29470000  0.54780000  1
  C  C359  1  0.69070000  0.28590000  0.59100000  1
  C  C360  1  0.72690000  0.25520000  0.60160000  1
  C  C361  1  0.66620000  0.31300000  0.62200000  1
  C  C362  1  0.66150000  0.35930000  0.61280000  1
  C  C363  1  0.63800000  0.38620000  0.64470000  1
  C  C364  1  0.62110000  0.37130000  0.68220000  1
  C  C365  1  0.62240000  0.33100000  0.68820000  1
  C  C366  1  0.64870000  0.30180000  0.65470000  1
  C  C367  1  0.59280000  0.39710000  0.71330000  1
  C  C368  1  0.53050000  0.03200000  0.69330000  1
  C  C369  1  0.40110000  0.59660000  0.14780000  1
  C  C370  1  0.37320000  0.63440000  0.12740000  1
  C  C371  1  0.33750000  0.62210000  0.09560000  1
  C  C372  1  0.30490000  0.65360000  0.07440000  1
  C  C373  1  0.30250000  0.69600000  0.08970000  1
  C  C374  1  0.34130000  0.70900000  0.12040000  1
  C  C375  1  0.37400000  0.67770000  0.14060000  1
  C  C376  1  0.25380000  0.72200000  0.07130000  1
  C  C377  1  0.24690000  0.73450000  0.03540000  1
  C  C378  1  0.20340000  0.76430000  0.02120000  1
  C  C379  1  0.18210000  0.79470000  0.04780000  1
  C  C380  1  0.19070000  0.78590000  0.09100000  1
  C  C381  1  0.22690000  0.75520000  0.10160000  1
  C  C382  1  0.16620000  0.81300000  0.12200000  1
  C  C383  1  0.16150000  0.85930000  0.11280000  1
  C  C384  1  0.13800000  0.88620000  0.14470000  1
  C  C385  1  0.12110000  0.87130000  0.18220000  1
  C  C386  1  0.12240000  0.83100000  0.18820000  1
  C  C387  1  0.14870000  0.80180000  0.15470000  1
  C  C388  1  0.09280000  0.89710000  0.21330000  1
  C  C389  1  0.03050000  0.53200000  0.19330000  1
  C  C390  1  0.09890000  0.90340000  0.64780000  1
  C  C391  1  0.12680000  0.86560000  0.62740000  1
  C  C392  1  0.16250000  0.87790000  0.59560000  1
  C  C393  1  0.19510000  0.84640000  0.57440000  1
  C  C394  1  0.19750000  0.80400000  0.58970000  1
  C  C395  1  0.15870000  0.79100000  0.62040000  1
  C  C396  1  0.12600000  0.82230000  0.64060000  1
  C  C397  1  0.24620000  0.77800000  0.57130000  1
  C  C398  1  0.25310000  0.76550000  0.53540000  1
  C  C399  1  0.29660000  0.73570000  0.52120000  1
  C  C400  1  0.31790000  0.70530000  0.54780000  1
  C  C401  1  0.30930000  0.71410000  0.59100000  1
  C  C402  1  0.27310000  0.74480000  0.60160000  1
  C  C403  1  0.33380000  0.68700000  0.62200000  1
  C  C404  1  0.33850000  0.64070000  0.61280000  1
  C  C405  1  0.36200000  0.61380000  0.64470000  1
  C  C406  1  0.37890000  0.62870000  0.68220000  1
  C  C407  1  0.37760000  0.66900000  0.68820000  1
  C  C408  1  0.35130000  0.69820000  0.65470000  1
  C  C409  1  0.40720000  0.60290000  0.71330000  1
  C  C410  1  0.46983000  0.97160000  0.73850000  1
  C  C411  1  0.59890000  0.40340000  0.14780000  1
  C  C412  1  0.62680000  0.36560000  0.12740000  1
  C  C413  1  0.66250000  0.37790000  0.09560000  1
  C  C414  1  0.69510000  0.34640000  0.07440000  1
  C  C415  1  0.69750000  0.30400000  0.08970000  1
  C  C416  1  0.65870000  0.29100000  0.12040000  1
  C  C417  1  0.62600000  0.32230000  0.14060000  1
  C  C418  1  0.74620000  0.27800000  0.07130000  1
  C  C419  1  0.75310000  0.26550000  0.03540000  1
  C  C420  1  0.79660000  0.23570000  0.02120000  1
  C  C421  1  0.81790000  0.20530000  0.04780000  1
  C  C422  1  0.80930000  0.21410000  0.09100000  1
  C  C423  1  0.77310000  0.24480000  0.10160000  1
  C  C424  1  0.83380000  0.18700000  0.12200000  1
  C  C425  1  0.83850000  0.14070000  0.11280000  1
  C  C426  1  0.86200000  0.11380000  0.14470000  1
  C  C427  1  0.87890000  0.12870000  0.18220000  1
  C  C428  1  0.87760000  0.16900000  0.18820000  1
  C  C429  1  0.85130000  0.19820000  0.15470000  1
  C  C430  1  0.90720000  0.10290000  0.21330000  1
  C  C431  1  0.96983000  0.47160000  0.23850000  1
  C  C432  1  0.90110000  0.90340000  0.64780000  1
  C  C433  1  0.87320000  0.86560000  0.62740000  1
  C  C434  1  0.83750000  0.87790000  0.59560000  1
  C  C435  1  0.80490000  0.84640000  0.57440000  1
  C  C436  1  0.80250000  0.80400000  0.58970000  1
  C  C437  1  0.84130000  0.79100000  0.62040000  1
  C  C438  1  0.87400000  0.82230000  0.64060000  1
  C  C439  1  0.75380000  0.77800000  0.57130000  1
  C  C440  1  0.74690000  0.76550000  0.53540000  1
  C  C441  1  0.70340000  0.73570000  0.52120000  1
  C  C442  1  0.68210000  0.70530000  0.54780000  1
  C  C443  1  0.69070000  0.71410000  0.59100000  1
  C  C444  1  0.72690000  0.74480000  0.60160000  1
  C  C445  1  0.66620000  0.68700000  0.62200000  1
  C  C446  1  0.66150000  0.64070000  0.61280000  1
  C  C447  1  0.63800000  0.61380000  0.64470000  1
  C  C448  1  0.62110000  0.62870000  0.68220000  1
  C  C449  1  0.62240000  0.66900000  0.68820000  1
  C  C450  1  0.64870000  0.69820000  0.65470000  1
  C  C451  1  0.59280000  0.60290000  0.71330000  1
  C  C452  1  0.53017000  0.97160000  0.73850000  1
  C  C453  1  0.40110000  0.40340000  0.14780000  1
  C  C454  1  0.37320000  0.36560000  0.12740000  1
  C  C455  1  0.33750000  0.37790000  0.09560000  1
  C  C456  1  0.30490000  0.34640000  0.07440000  1
  C  C457  1  0.30250000  0.30400000  0.08970000  1
  C  C458  1  0.34130000  0.29100000  0.12040000  1
  C  C459  1  0.37400000  0.32230000  0.14060000  1
  C  C460  1  0.25380000  0.27800000  0.07130000  1
  C  C461  1  0.24690000  0.26550000  0.03540000  1
  C  C462  1  0.20340000  0.23570000  0.02120000  1
  C  C463  1  0.18210000  0.20530000  0.04780000  1
  C  C464  1  0.19070000  0.21410000  0.09100000  1
  C  C465  1  0.22690000  0.24480000  0.10160000  1
  C  C466  1  0.16620000  0.18700000  0.12200000  1
  C  C467  1  0.16150000  0.14070000  0.11280000  1
  C  C468  1  0.13800000  0.11380000  0.14470000  1
  C  C469  1  0.12110000  0.12870000  0.18220000  1
  C  C470  1  0.12240000  0.16900000  0.18820000  1
  C  C471  1  0.14870000  0.19820000  0.15470000  1
  C  C472  1  0.09280000  0.10290000  0.21330000  1
  C  C473  1  0.03017000  0.47160000  0.23850000  1
  C  C474  1  0.09890000  0.09660000  0.64780000  1
  C  C475  1  0.12680000  0.13440000  0.62740000  1
  C  C476  1  0.16250000  0.12210000  0.59560000  1
  C  C477  1  0.19510000  0.15360000  0.57440000  1
  C  C478  1  0.19750000  0.19600000  0.58970000  1
  C  C479  1  0.15870000  0.20900000  0.62040000  1
  C  C480  1  0.12600000  0.17770000  0.64060000  1
  C  C481  1  0.24620000  0.22200000  0.57130000  1
  C  C482  1  0.25310000  0.23450000  0.53540000  1
  C  C483  1  0.29660000  0.26430000  0.52120000  1
  C  C484  1  0.31790000  0.29470000  0.54780000  1
  C  C485  1  0.30930000  0.28590000  0.59100000  1
  C  C486  1  0.27310000  0.25520000  0.60160000  1
  C  C487  1  0.33380000  0.31300000  0.62200000  1
  C  C488  1  0.33850000  0.35930000  0.61280000  1
  C  C489  1  0.36200000  0.38620000  0.64470000  1
  C  C490  1  0.37890000  0.37130000  0.68220000  1
  C  C491  1  0.37760000  0.33100000  0.68820000  1
  C  C492  1  0.35130000  0.30180000  0.65470000  1
  C  C493  1  0.40720000  0.39710000  0.71330000  1
  C  C494  1  0.46950000  0.03200000  0.69330000  1
  C  C495  1  0.59890000  0.59660000  0.14780000  1
  C  C496  1  0.62680000  0.63440000  0.12740000  1
  C  C497  1  0.66250000  0.62210000  0.09560000  1
  C  C498  1  0.69510000  0.65360000  0.07440000  1
  C  C499  1  0.69750000  0.69600000  0.08970000  1
  C  C500  1  0.65870000  0.70900000  0.12040000  1
  C  C501  1  0.62600000  0.67770000  0.14060000  1
  C  C502  1  0.74620000  0.72200000  0.07130000  1
  C  C503  1  0.75310000  0.73450000  0.03540000  1
  C  C504  1  0.79660000  0.76430000  0.02120000  1
  C  C505  1  0.81790000  0.79470000  0.04780000  1
  C  C506  1  0.80930000  0.78590000  0.09100000  1
  C  C507  1  0.77310000  0.75520000  0.10160000  1
  C  C508  1  0.83380000  0.81300000  0.12200000  1
  C  C509  1  0.83850000  0.85930000  0.11280000  1
  C  C510  1  0.86200000  0.88620000  0.14470000  1
  C  C511  1  0.87890000  0.87130000  0.18220000  1
  C  C512  1  0.87760000  0.83100000  0.18820000  1
  C  C513  1  0.85130000  0.80180000  0.15470000  1
  C  C514  1  0.90720000  0.89710000  0.21330000  1
  C  C515  1  0.96950000  0.53200000  0.19330000  1
  C  C516  1  0.09890000  0.90340000  0.35220000  1
  C  C517  1  0.12680000  0.86560000  0.37260000  1
  C  C518  1  0.16250000  0.87790000  0.40440000  1
  C  C519  1  0.19510000  0.84640000  0.42560000  1
  C  C520  1  0.19750000  0.80400000  0.41030000  1
  C  C521  1  0.15870000  0.79100000  0.37960000  1
  C  C522  1  0.12600000  0.82230000  0.35940000  1
  C  C523  1  0.24620000  0.77800000  0.42870000  1
  C  C524  1  0.25310000  0.76550000  0.46460000  1
  C  C525  1  0.29660000  0.73570000  0.47880000  1
  C  C526  1  0.31790000  0.70530000  0.45220000  1
  C  C527  1  0.30930000  0.71410000  0.40900000  1
  C  C528  1  0.27310000  0.74480000  0.39840000  1
  C  C529  1  0.33380000  0.68700000  0.37800000  1
  C  C530  1  0.33850000  0.64070000  0.38720000  1
  C  C531  1  0.36200000  0.61380000  0.35530000  1
  C  C532  1  0.37890000  0.62870000  0.31780000  1
  C  C533  1  0.37760000  0.66900000  0.31180000  1
  C  C534  1  0.35130000  0.69820000  0.34530000  1
  C  C535  1  0.40720000  0.60290000  0.28670000  1
  C  C536  1  0.46983000  0.97160000  0.26150000  1
  C  C537  1  0.59890000  0.40340000  0.85220000  1
  C  C538  1  0.62680000  0.36560000  0.87260000  1
  C  C539  1  0.66250000  0.37790000  0.90440000  1
  C  C540  1  0.69510000  0.34640000  0.92560000  1
  C  C541  1  0.69750000  0.30400000  0.91030000  1
  C  C542  1  0.65870000  0.29100000  0.87960000  1
  C  C543  1  0.62600000  0.32230000  0.85940000  1
  C  C544  1  0.74620000  0.27800000  0.92870000  1
  C  C545  1  0.75310000  0.26550000  0.96460000  1
  C  C546  1  0.79660000  0.23570000  0.97880000  1
  C  C547  1  0.81790000  0.20530000  0.95220000  1
  C  C548  1  0.80930000  0.21410000  0.90900000  1
  C  C549  1  0.77310000  0.24480000  0.89840000  1
  C  C550  1  0.83380000  0.18700000  0.87800000  1
  C  C551  1  0.83850000  0.14070000  0.88720000  1
  C  C552  1  0.86200000  0.11380000  0.85530000  1
  C  C553  1  0.87890000  0.12870000  0.81780000  1
  C  C554  1  0.87760000  0.16900000  0.81180000  1
  C  C555  1  0.85130000  0.19820000  0.84530000  1
  C  C556  1  0.90720000  0.10290000  0.78670000  1
  C  C557  1  0.96950000  0.46800000  0.80670000  1
  C  C558  1  0.90110000  0.09660000  0.35220000  1
  C  C559  1  0.87320000  0.13440000  0.37260000  1
  C  C560  1  0.83750000  0.12210000  0.40440000  1
  C  C561  1  0.80490000  0.15360000  0.42560000  1
  C  C562  1  0.80250000  0.19600000  0.41030000  1
  C  C563  1  0.84130000  0.20900000  0.37960000  1
  C  C564  1  0.87400000  0.17770000  0.35940000  1
  C  C565  1  0.75380000  0.22200000  0.42870000  1
  C  C566  1  0.74690000  0.23450000  0.46460000  1
  C  C567  1  0.70340000  0.26430000  0.47880000  1
  C  C568  1  0.68210000  0.29470000  0.45220000  1
  C  C569  1  0.69070000  0.28590000  0.40900000  1
  C  C570  1  0.72690000  0.25520000  0.39840000  1
  C  C571  1  0.66620000  0.31300000  0.37800000  1
  C  C572  1  0.66150000  0.35930000  0.38720000  1
  C  C573  1  0.63800000  0.38620000  0.35530000  1
  C  C574  1  0.62110000  0.37130000  0.31780000  1
  C  C575  1  0.62240000  0.33100000  0.31180000  1
  C  C576  1  0.64870000  0.30180000  0.34530000  1
  C  C577  1  0.59280000  0.39710000  0.28670000  1
  C  C578  1  0.53050000  0.03200000  0.30670000  1
  C  C579  1  0.40110000  0.59660000  0.85220000  1
  C  C580  1  0.37320000  0.63440000  0.87260000  1
  C  C581  1  0.33750000  0.62210000  0.90440000  1
  C  C582  1  0.30490000  0.65360000  0.92560000  1
  C  C583  1  0.30250000  0.69600000  0.91030000  1
  C  C584  1  0.34130000  0.70900000  0.87960000  1
  C  C585  1  0.37400000  0.67770000  0.85940000  1
  C  C586  1  0.25380000  0.72200000  0.92870000  1
  C  C587  1  0.24690000  0.73450000  0.96460000  1
  C  C588  1  0.20340000  0.76430000  0.97880000  1
  C  C589  1  0.18210000  0.79470000  0.95220000  1
  C  C590  1  0.19070000  0.78590000  0.90900000  1
  C  C591  1  0.22690000  0.75520000  0.89840000  1
  C  C592  1  0.16620000  0.81300000  0.87800000  1
  C  C593  1  0.16150000  0.85930000  0.88720000  1
  C  C594  1  0.13800000  0.88620000  0.85530000  1
  C  C595  1  0.12110000  0.87130000  0.81780000  1
  C  C596  1  0.12240000  0.83100000  0.81180000  1
  C  C597  1  0.14870000  0.80180000  0.84530000  1
  C  C598  1  0.09280000  0.89710000  0.78670000  1
  C  C599  1  0.03017000  0.52840000  0.76150000  1
  C  C600  1  0.19270000  0.00000000  0.28280000  1
  C  C601  1  0.25460000  0.00000000  0.28140000  1
  C  C602  1  0.28620000  0.00000000  0.31770000  1
  C  C603  1  0.34610000  0.00000000  0.31880000  1
  C  C604  1  0.37420000  0.00000000  0.28380000  1
  C  C605  1  0.34480000  0.00000000  0.24950000  1
  C  C606  1  0.28590000  0.00000000  0.24700000  1
  C  C607  1  0.43890000  0.00000000  0.28610000  1
  C  C608  1  0.05310000  0.00000000  0.47800000  1
  C  C609  1  0.69270000  0.50000000  0.78280000  1
  C  C610  1  0.75460000  0.50000000  0.78140000  1
  C  C611  1  0.78620000  0.50000000  0.81770000  1
  C  C612  1  0.84610000  0.50000000  0.81880000  1
  C  C613  1  0.87420000  0.50000000  0.78380000  1
  C  C614  1  0.84480000  0.50000000  0.74950000  1
  C  C615  1  0.78590000  0.50000000  0.74700000  1
  C  C616  1  0.93890000  0.50000000  0.78610000  1
  C  C617  1  0.55310000  0.50000000  0.97800000  1
  C  C618  1  0.80730000  0.00000000  0.28280000  1
  C  C619  1  0.74540000  0.00000000  0.28140000  1
  C  C620  1  0.71380000  0.00000000  0.31770000  1
  C  C621  1  0.65390000  0.00000000  0.31880000  1
  C  C622  1  0.62580000  0.00000000  0.28380000  1
  C  C623  1  0.65520000  0.00000000  0.24950000  1
  C  C624  1  0.71410000  0.00000000  0.24700000  1
  C  C625  1  0.56110000  0.00000000  0.28610000  1
  C  C626  1  0.94690000  0.00000000  0.47800000  1
  C  C627  1  0.30730000  0.50000000  0.78280000  1
  C  C628  1  0.24540000  0.50000000  0.78140000  1
  C  C629  1  0.21380000  0.50000000  0.81770000  1
  C  C630  1  0.15390000  0.50000000  0.81880000  1
  C  C631  1  0.12580000  0.50000000  0.78380000  1
  C  C632  1  0.15520000  0.50000000  0.74950000  1
  C  C633  1  0.21410000  0.50000000  0.74700000  1
  C  C634  1  0.06110000  0.50000000  0.78610000  1
  C  C635  1  0.44690000  0.50000000  0.97800000  1
  C  C636  1  0.80730000  0.00000000  0.71720000  1
  C  C637  1  0.74540000  0.00000000  0.71860000  1
  C  C638  1  0.71380000  0.00000000  0.68230000  1
  C  C639  1  0.65390000  0.00000000  0.68120000  1
  C  C640  1  0.62580000  0.00000000  0.71620000  1
  C  C641  1  0.65520000  0.00000000  0.75050000  1
  C  C642  1  0.71410000  0.00000000  0.75300000  1
  C  C643  1  0.56110000  0.00000000  0.71390000  1
  C  C644  1  0.94690000  0.00000000  0.52200000  1
  C  C645  1  0.30730000  0.50000000  0.21720000  1
  C  C646  1  0.24540000  0.50000000  0.21860000  1
  C  C647  1  0.21380000  0.50000000  0.18230000  1
  C  C648  1  0.15390000  0.50000000  0.18120000  1
  C  C649  1  0.12580000  0.50000000  0.21620000  1
  C  C650  1  0.15520000  0.50000000  0.25050000  1
  C  C651  1  0.21410000  0.50000000  0.25300000  1
  C  C652  1  0.06110000  0.50000000  0.21390000  1
  C  C653  1  0.44690000  0.50000000  0.02200000  1
  C  C654  1  0.19270000  0.00000000  0.71720000  1
  C  C655  1  0.25460000  0.00000000  0.71860000  1
  C  C656  1  0.28620000  0.00000000  0.68230000  1
  C  C657  1  0.34610000  0.00000000  0.68120000  1
  C  C658  1  0.37420000  0.00000000  0.71620000  1
  C  C659  1  0.34480000  0.00000000  0.75050000  1
  C  C660  1  0.28590000  0.00000000  0.75300000  1
  C  C661  1  0.43890000  0.00000000  0.71390000  1
  C  C662  1  0.05310000  0.00000000  0.52200000  1
  C  C663  1  0.69270000  0.50000000  0.21720000  1
  C  C664  1  0.75460000  0.50000000  0.21860000  1
  C  C665  1  0.78620000  0.50000000  0.18230000  1
  C  C666  1  0.84610000  0.50000000  0.18120000  1
  C  C667  1  0.87420000  0.50000000  0.21620000  1
  C  C668  1  0.84480000  0.50000000  0.25050000  1
  C  C669  1  0.78590000  0.50000000  0.25300000  1
  C  C670  1  0.93890000  0.50000000  0.21390000  1
  C  C671  1  0.55310000  0.50000000  0.02200000  1
  C  C672  1  0.00000000  0.00000000  0.41530000  1
  C  C673  1  0.00000000  0.00000000  0.45780000  1
  C  C674  1  0.50000000  0.50000000  0.91530000  1
  C  C675  1  0.50000000  0.50000000  0.95780000  1
  C  C676  1  0.00000000  0.00000000  0.58470000  1
  C  C677  1  0.00000000  0.00000000  0.54220000  1
  C  C678  1  0.50000000  0.50000000  0.08470000  1
  C  C679  1  0.50000000  0.50000000  0.04220000  1
  C  C680  1  0.93875000  0.43471000  0.82838000  1
  C  C681  1  0.06066000  0.55888000  0.73641000  1
  C  C682  1  0.44080000  0.94510000  0.76345000  1
  C  C683  1  0.44039000  0.94239000  0.23694000  1
  C  C684  1  0.55978000  0.06131000  0.67177000  1
  C  C685  1  0.56020000  0.06402000  0.32785000  1
  C  C686  1  0.94059000  0.56329000  0.17478000  1
  C  C687  1  0.05883000  0.44312000  0.26043000  1
  N  N688  1  0.23080000  0.21530000  0.50000000  1
  N  N689  1  0.73080000  0.71530000  0.00000000  1
  N  N690  1  0.76920000  0.78470000  0.50000000  1
  N  N691  1  0.26920000  0.28470000  0.00000000  1
  N  N692  1  0.76920000  0.21530000  0.50000000  1
  N  N693  1  0.26920000  0.71530000  0.00000000  1
  N  N694  1  0.23080000  0.78470000  0.50000000  1
  N  N695  1  0.73080000  0.28470000  0.00000000  1
  O  O696  1  0.11040000  0.05960000  0.36000000  1
  O  O697  1  0.06000000  0.11600000  0.32270000  1
  O  O698  1  0.44160000  0.38440000  0.26030000  1
  O  O699  1  0.39020000  0.43920000  0.29610000  1
  O  O700  1  0.07480000  0.04060000  0.28273000  1
  O  O701  1  0.61040000  0.55960000  0.86000000  1
  O  O702  1  0.56000000  0.61600000  0.82270000  1
  O  O703  1  0.94160000  0.88440000  0.76030000  1
  O  O704  1  0.89020000  0.93920000  0.79610000  1
  O  O705  1  0.57480000  0.54060000  0.78273000  1
  O  O706  1  0.88960000  0.94040000  0.36000000  1
  O  O707  1  0.94000000  0.88400000  0.32270000  1
  O  O708  1  0.55840000  0.61560000  0.26030000  1
  O  O709  1  0.60980000  0.56080000  0.29610000  1
  O  O710  1  0.92520000  0.95940000  0.28273000  1
  O  O711  1  0.38960000  0.44040000  0.86000000  1
  O  O712  1  0.44000000  0.38400000  0.82270000  1
  O  O713  1  0.05840000  0.11560000  0.76030000  1
  O  O714  1  0.10980000  0.06080000  0.79610000  1
  O  O715  1  0.42520000  0.45940000  0.78273000  1
  O  O716  1  0.88960000  0.05960000  0.64000000  1
  O  O717  1  0.94000000  0.11600000  0.67730000  1
  O  O718  1  0.55840000  0.38440000  0.73970000  1
  O  O719  1  0.60980000  0.43920000  0.70390000  1
  O  O720  1  0.92520000  0.04060000  0.71727000  1
  O  O721  1  0.38960000  0.55960000  0.14000000  1
  O  O722  1  0.44000000  0.61600000  0.17730000  1
  O  O723  1  0.05840000  0.88440000  0.23970000  1
  O  O724  1  0.10980000  0.93920000  0.20390000  1
  O  O725  1  0.42520000  0.54060000  0.21727000  1
  O  O726  1  0.11040000  0.94040000  0.64000000  1
  O  O727  1  0.06000000  0.88400000  0.67730000  1
  O  O728  1  0.44160000  0.61560000  0.73970000  1
  O  O729  1  0.39020000  0.56080000  0.70390000  1
  O  O730  1  0.07480000  0.95940000  0.71727000  1
  O  O731  1  0.61040000  0.44040000  0.14000000  1
  O  O732  1  0.56000000  0.38400000  0.17730000  1
  O  O733  1  0.94160000  0.11560000  0.23970000  1
  O  O734  1  0.89020000  0.06080000  0.20390000  1
  O  O735  1  0.57480000  0.45940000  0.21727000  1
  O  O736  1  0.88960000  0.94040000  0.64000000  1
  O  O737  1  0.94000000  0.88400000  0.67730000  1
  O  O738  1  0.55840000  0.61560000  0.73970000  1
  O  O739  1  0.60980000  0.56080000  0.70390000  1
  O  O740  1  0.92520000  0.95940000  0.71727000  1
  O  O741  1  0.38960000  0.44040000  0.14000000  1
  O  O742  1  0.44000000  0.38400000  0.17730000  1
  O  O743  1  0.05840000  0.11560000  0.23970000  1
  O  O744  1  0.10980000  0.06080000  0.20390000  1
  O  O745  1  0.42520000  0.45940000  0.21727000  1
  O  O746  1  0.11040000  0.05960000  0.64000000  1
  O  O747  1  0.06000000  0.11600000  0.67730000  1
  O  O748  1  0.44160000  0.38440000  0.73970000  1
  O  O749  1  0.39020000  0.43920000  0.70390000  1
  O  O750  1  0.07480000  0.04060000  0.71727000  1
  O  O751  1  0.61040000  0.55960000  0.14000000  1
  O  O752  1  0.56000000  0.61600000  0.17730000  1
  O  O753  1  0.94160000  0.88440000  0.23970000  1
  O  O754  1  0.89020000  0.93920000  0.20390000  1
  O  O755  1  0.57480000  0.54060000  0.21727000  1
  O  O756  1  0.11040000  0.94040000  0.36000000  1
  O  O757  1  0.06000000  0.88400000  0.32270000  1
  O  O758  1  0.44160000  0.61560000  0.26030000  1
  O  O759  1  0.39020000  0.56080000  0.29610000  1
  O  O760  1  0.07480000  0.95940000  0.28273000  1
  O  O761  1  0.61040000  0.44040000  0.86000000  1
  O  O762  1  0.56000000  0.38400000  0.82270000  1
  O  O763  1  0.94160000  0.11560000  0.76030000  1
  O  O764  1  0.89020000  0.06080000  0.79610000  1
  O  O765  1  0.57480000  0.45940000  0.78273000  1
  O  O766  1  0.88960000  0.05960000  0.36000000  1
  O  O767  1  0.94000000  0.11600000  0.32270000  1
  O  O768  1  0.55840000  0.38440000  0.26030000  1
  O  O769  1  0.60980000  0.43920000  0.29610000  1
  O  O770  1  0.92520000  0.04060000  0.28273000  1
  O  O771  1  0.38960000  0.55960000  0.86000000  1
  O  O772  1  0.44000000  0.61600000  0.82270000  1
  O  O773  1  0.05840000  0.88440000  0.76030000  1
  O  O774  1  0.10980000  0.93920000  0.79610000  1
  O  O775  1  0.42520000  0.54060000  0.78273000  1
  O  O776  1  0.16610000  0.00000000  0.31690000  1
  O  O777  1  0.16810000  0.00000000  0.24750000  1
  O  O778  1  0.04780000  0.00000000  0.39630000  1
  O  O779  1  0.66610000  0.50000000  0.81690000  1
  O  O780  1  0.66810000  0.50000000  0.74750000  1
  O  O781  1  0.54780000  0.50000000  0.89630000  1
  O  O782  1  0.83390000  0.00000000  0.31690000  1
  O  O783  1  0.83190000  0.00000000  0.24750000  1
  O  O784  1  0.95220000  0.00000000  0.39630000  1
  O  O785  1  0.33390000  0.50000000  0.81690000  1
  O  O786  1  0.33190000  0.50000000  0.74750000  1
  O  O787  1  0.45220000  0.50000000  0.89630000  1
  O  O788  1  0.83390000  0.00000000  0.68310000  1
  O  O789  1  0.83190000  0.00000000  0.75250000  1
  O  O790  1  0.95220000  0.00000000  0.60370000  1
  O  O791  1  0.33390000  0.50000000  0.18310000  1
  O  O792  1  0.33190000  0.50000000  0.25250000  1
  O  O793  1  0.45220000  0.50000000  0.10370000  1
  O  O794  1  0.16610000  0.00000000  0.68310000  1
  O  O795  1  0.16810000  0.00000000  0.75250000  1
  O  O796  1  0.04780000  0.00000000  0.60370000  1
  O  O797  1  0.66610000  0.50000000  0.18310000  1
  O  O798  1  0.66810000  0.50000000  0.25250000  1
  O  O799  1  0.54780000  0.50000000  0.10370000  1
  O  O800  1  0.00000000  0.03760000  0.33030000  1
  O  O801  1  0.00000000  0.04320000  0.23410000  1
  O  O802  1  0.50000000  0.53760000  0.83030000  1
  O  O803  1  0.50000000  0.54320000  0.73410000  1
  O  O804  1  0.00000000  0.96240000  0.33030000  1
  O  O805  1  0.00000000  0.95680000  0.23410000  1
  O  O806  1  0.50000000  0.46240000  0.83030000  1
  O  O807  1  0.50000000  0.45680000  0.73410000  1
  O  O808  1  0.00000000  0.03760000  0.66970000  1
  O  O809  1  0.00000000  0.04320000  0.76590000  1
  O  O810  1  0.50000000  0.53760000  0.16970000  1
  O  O811  1  0.50000000  0.54320000  0.26590000  1
  O  O812  1  0.00000000  0.96240000  0.66970000  1
  O  O813  1  0.00000000  0.95680000  0.76590000  1
  O  O814  1  0.50000000  0.46240000  0.16970000  1
  O  O815  1  0.50000000  0.45680000  0.26590000  1
