# generated using pymatgen
data_Zr2H19C34O13
_symmetry_space_group_name_H-M   'P 1'
_cell_length_a   19.54850000
_cell_length_b   24.61470000
_cell_length_c   36.70910656
_cell_angle_alpha   70.41122847
_cell_angle_beta   89.30244564
_cell_angle_gamma   87.91900000
_symmetry_Int_Tables_number   1
_chemical_formula_structural   Zr2H19C34O13
_chemical_formula_sum   'Zr24 H228 C408 O156'
_cell_volume   16630.41056635
_cell_formula_units_Z   12
loop_
 _symmetry_equiv_pos_site_id
 _symmetry_equiv_pos_as_xyz
  1  'x, y, z'
loop_
 _atom_site_type_symbol
 _atom_site_label
 _atom_site_symmetry_multiplicity
 _atom_site_fract_x
 _atom_site_fract_y
 _atom_site_fract_z
 _atom_site_occupancy
  C  C0  1  0.68720000  0.47020000  0.37760000  1
  C  C1  1  0.65090000  0.41310000  0.40700000  1
  C  C2  1  0.67590000  0.38770000  0.44240000  1
  C  C3  1  0.64390000  0.33910000  0.46660000  1
  C  C4  1  0.57750000  0.32310000  0.45440000  1
  C  C5  1  0.54880000  0.35270000  0.41820000  1
  C  C6  1  0.58670000  0.40060000  0.39340000  1
  C  C7  1  0.54080000  0.27380000  0.48240000  1
  C  C8  1  0.51720000  0.27450000  0.51860000  1
  C  C9  1  0.47890000  0.22950000  0.54200000  1
  C  C10  1  0.46180000  0.18520000  0.53020000  1
  C  C11  1  0.48450000  0.18440000  0.49440000  1
  C  C12  1  0.52400000  0.22820000  0.47000000  1
  C  C13  1  0.51270000  0.37570000  0.51580000  1
  C  C14  1  0.54100000  0.32080000  0.53420000  1
  C  C15  1  0.58660000  0.31150000  0.56460000  1
  C  C16  1  0.60400000  0.35720000  0.57660000  1
  C  C17  1  0.57570000  0.41210000  0.55820000  1
  C  C18  1  0.53010000  0.42130000  0.52780000  1
  C  C19  1  0.62100000  0.45240000  0.56920000  1
  C  C20  1  0.45760000  0.23230000  0.57940000  1
  C  C21  1  0.40440000  0.27160000  0.58040000  1
  C  C22  1  0.38280000  0.27330000  0.61720000  1
  C  C23  1  0.41360000  0.23530000  0.65140000  1
  C  C24  1  0.46510000  0.19710000  0.65100000  1
  C  C25  1  0.48320000  0.19530000  0.61280000  1
  C  C26  1  0.38970000  0.24090000  0.69040000  1
  C  C27  1  0.42370000  0.13940000  0.55620000  1
  C  C28  1  0.35230000  0.14850000  0.56460000  1
  C  C29  1  0.31940000  0.10100000  0.59240000  1
  C  C30  1  0.35290000  0.04470000  0.60960000  1
  C  C31  1  0.42270000  0.03810000  0.60320000  1
  C  C32  1  0.45970000  0.08390000  0.57480000  1
  C  C33  1  0.32840000  0.99670000  0.64260000  1
  C  C34  1  0.39210000  0.13850000  0.47060000  1
  C  C35  1  0.46070000  0.13640000  0.48060000  1
  C  C36  1  0.50450000  0.09330000  0.47620000  1
  C  C37  1  0.47980000  0.05240000  0.46160000  1
  C  C38  1  0.41110000  0.05460000  0.45160000  1
  C  C39  1  0.36730000  0.09770000  0.45600000  1
  C  C40  1  0.38700000  0.01220000  0.43220000  1
  C  C41  1  0.55880000  0.22040000  0.43620000  1
  C  C42  1  0.62840000  0.22120000  0.43220000  1
  C  C43  1  0.65800000  0.21350000  0.39980000  1
  C  C44  1  0.61840000  0.20540000  0.36980000  1
  C  C45  1  0.55040000  0.20500000  0.37300000  1
  C  C46  1  0.52050000  0.21530000  0.40540000  1
  C  C47  1  0.65330000  0.18749000  0.33762000  1
  C  C48  1  0.55770000  0.52140000  0.24940000  1
  C  C49  1  0.49730000  0.48600000  0.24720000  1
  C  C50  1  0.45660000  0.50750000  0.21440000  1
  C  C51  1  0.40070000  0.47910000  0.21080000  1
  C  C52  1  0.38240000  0.43130000  0.24080000  1
  C  C53  1  0.42270000  0.40700000  0.27580000  1
  C  C54  1  0.48200000  0.43530000  0.27820000  1
  C  C55  1  0.31210000  0.40400000  0.24000000  1
  C  C56  1  0.25380000  0.43810000  0.23920000  1
  C  C57  1  0.19080000  0.41370000  0.23780000  1
  C  C58  1  0.12480000  0.44830000  0.23840000  1
  C  C59  1  0.10850000  0.46630000  0.26920000  1
  C  C60  1  0.04930000  0.50120000  0.26680000  1
  C  C61  1  0.00730000  0.51640000  0.23580000  1
  C  C62  1  0.02520000  0.49640000  0.20640000  1
  C  C63  1  0.08350000  0.46260000  0.20640000  1
  C  C64  1  0.94480000  0.55050000  0.23440000  1
  C  C65  1  0.26800000  0.60910000  0.24020000  1
  C  C66  1  0.24650000  0.59960000  0.20700000  1
  C  C67  1  0.24110000  0.54350000  0.20680000  1
  C  C68  1  0.25720000  0.49700000  0.23980000  1
  C  C69  1  0.27870000  0.50660000  0.27300000  1
  C  C70  1  0.28410000  0.56260000  0.27320000  1
  C  C71  1  0.27790000  0.67810000  0.23720000  1
  C  C72  1  0.52600000  0.66630000  0.27720000  1
  C  C73  1  0.44930000  0.67000000  0.28720000  1
  C  C74  1  0.65670000  0.61990000  0.13900000  1
  C  C75  1  0.62750000  0.62260000  0.09940000  1
  C  C76  1  0.91700000  0.72280000  0.26360000  1
  C  C77  1  0.96980000  0.76270000  0.27060000  1
  C  C78  1  0.89520000  0.76178000  0.16064000  1
  C  C79  1  0.91860000  0.81119000  0.12882000  1
  C  C80  1  0.87290000  0.84468000  0.10444000  1
  C  C81  1  0.89060000  0.89219000  0.07142000  1
  C  C82  1  0.95950000  0.90420000  0.06580000  1
  C  C83  1  0.00760000  0.87050000  0.09040000  1
  C  C84  1  0.98680000  0.82260000  0.12260000  1
  C  C85  1  0.98110000  0.95402000  0.03256000  1
  C  C86  1  0.96890000  0.01067000  0.03166000  1
  C  C87  1  0.98720000  0.05601000  0.99958000  1
  C  C88  1  0.93920000  0.02211000  0.06678000  1
  C  C89  1  0.86980000  0.02601000  0.07118000  1
  C  C90  1  0.84500000  0.03985000  0.10270000  1
  C  C91  1  0.88710000  0.05203000  0.12814000  1
  C  C92  1  0.95520000  0.05033000  0.12194000  1
  C  C93  1  0.98200000  0.03467000  0.09186000  1
  C  C94  1  0.86020000  0.06908000  0.16064000  1
  C  C95  1  0.94420000  0.22637000  0.00106000  1
  C  C96  1  0.01010000  0.20227000  0.00886000  1
  C  C97  1  0.02450000  0.14703000  0.00794000  1
  C  C98  1  0.97300000  0.11590000  0.99920000  1
  C  C99  1  0.90710000  0.14000000  0.99140000  1
  C  C100  1  0.89270000  0.19524000  0.99232000  1
  C  C101  1  0.92280000  0.30730000  0.99860000  1
  C  C102  1  0.81280000  0.15220000  0.37760000  1
  C  C103  1  0.84910000  0.17990000  0.40700000  1
  C  C104  1  0.82410000  0.16990000  0.44240000  1
  C  C105  1  0.85610000  0.19430000  0.46660000  1
  C  C106  1  0.92250000  0.22250000  0.45440000  1
  C  C107  1  0.95120000  0.22910000  0.41820000  1
  C  C108  1  0.91330000  0.20600000  0.39340000  1
  C  C109  1  0.95920000  0.24380000  0.48240000  1
  C  C110  1  0.98280000  0.20690000  0.51860000  1
  C  C111  1  0.02110000  0.22850000  0.54200000  1
  C  C112  1  0.03820000  0.28460000  0.53020000  1
  C  C113  1  0.01550000  0.32120000  0.49440000  1
  C  C114  1  0.97600000  0.30180000  0.47000000  1
  C  C115  1  0.98730000  0.10850000  0.51580000  1
  C  C116  1  0.95900000  0.14500000  0.53420000  1
  C  C117  1  0.91340000  0.12390000  0.56460000  1
  C  C118  1  0.89600000  0.06620000  0.57660000  1
  C  C119  1  0.92430000  0.02970000  0.55820000  1
  C  C120  1  0.96990000  0.05090000  0.52780000  1
  C  C121  1  0.87900000  0.97840000  0.56920000  1
  C  C122  1  0.04240000  0.18830000  0.57940000  1
  C  C123  1  0.09560000  0.14800000  0.58040000  1
  C  C124  1  0.11720000  0.10950000  0.61720000  1
  C  C125  1  0.08640000  0.11330000  0.65140000  1
  C  C126  1  0.03490000  0.15190000  0.65100000  1
  C  C127  1  0.01680000  0.19190000  0.61280000  1
  C  C128  1  0.11030000  0.06870000  0.69040000  1
  C  C129  1  0.07630000  0.30440000  0.55620000  1
  C  C130  1  0.14770000  0.28690000  0.56460000  1
  C  C131  1  0.18060000  0.30660000  0.59240000  1
  C  C132  1  0.14710000  0.34570000  0.60960000  1
  C  C133  1  0.07730000  0.35870000  0.60320000  1
  C  C134  1  0.04030000  0.34130000  0.57480000  1
  C  C135  1  0.17160000  0.36070000  0.64260000  1
  C  C136  1  0.10790000  0.39090000  0.47060000  1
  C  C137  1  0.03930000  0.38300000  0.48060000  1
  C  C138  1  0.99550000  0.43050000  0.47620000  1
  C  C139  1  0.02020000  0.48600000  0.46160000  1
  C  C140  1  0.08890000  0.49380000  0.45160000  1
  C  C141  1  0.13270000  0.44630000  0.45600000  1
  C  C142  1  0.11300000  0.55560000  0.43220000  1
  C  C143  1  0.94120000  0.34340000  0.43620000  1
  C  C144  1  0.87160000  0.34660000  0.43220000  1
  C  C145  1  0.84200000  0.38670000  0.39980000  1
  C  C146  1  0.88160000  0.42480000  0.36980000  1
  C  C147  1  0.94960000  0.42200000  0.37300000  1
  C  C148  1  0.97950000  0.37930000  0.40540000  1
  C  C149  1  0.84670000  0.47489000  0.33762000  1
  C  C150  1  0.94230000  0.22920000  0.24940000  1
  C  C151  1  0.00270000  0.26680000  0.24720000  1
  C  C152  1  0.04340000  0.27810000  0.21440000  1
  C  C153  1  0.09930000  0.31010000  0.21080000  1
  C  C154  1  0.11760000  0.32790000  0.24080000  1
  C  C155  1  0.07730000  0.31720000  0.27580000  1
  C  C156  1  0.01800000  0.28650000  0.27820000  1
  C  C157  1  0.18790000  0.35600000  0.24000000  1
  C  C158  1  0.24620000  0.32270000  0.23920000  1
  C  C159  1  0.30920000  0.34850000  0.23780000  1
  C  C160  1  0.37520000  0.31330000  0.23840000  1
  C  C161  1  0.39150000  0.26450000  0.26920000  1
  C  C162  1  0.45070000  0.23200000  0.26680000  1
  C  C163  1  0.49270000  0.24780000  0.23580000  1
  C  C164  1  0.47480000  0.29720000  0.20640000  1
  C  C165  1  0.41650000  0.33100000  0.20640000  1
  C  C166  1  0.55520000  0.21510000  0.23440000  1
  C  C167  1  0.23200000  0.15070000  0.24020000  1
  C  C168  1  0.25350000  0.19340000  0.20700000  1
  C  C169  1  0.25890000  0.24970000  0.20680000  1
  C  C170  1  0.24280000  0.26320000  0.23980000  1
  C  C171  1  0.22130000  0.22040000  0.27300000  1
  C  C172  1  0.21590000  0.16420000  0.27320000  1
  C  C173  1  0.22210000  0.08470000  0.23720000  1
  C  C174  1  0.97400000  0.05650000  0.27720000  1
  C  C175  1  0.05070000  0.04280000  0.28720000  1
  C  C176  1  0.84330000  0.24110000  0.13900000  1
  C  C177  1  0.87250000  0.27800000  0.09940000  1
  C  C178  1  0.58300000  0.01360000  0.26360000  1
  C  C179  1  0.53020000  0.96670000  0.27060000  1
  C  C180  1  0.60480000  0.07758000  0.16064000  1
  C  C181  1  0.58140000  0.05999000  0.12882000  1
  C  C182  1  0.62710000  0.05088000  0.10444000  1
  C  C183  1  0.60940000  0.03639000  0.07142000  1
  C  C184  1  0.54050000  0.03000000  0.06580000  1
  C  C185  1  0.49240000  0.03910000  0.09040000  1
  C  C186  1  0.51320000  0.05480000  0.12260000  1
  C  C187  1  0.51890000  0.01342000  0.03256000  1
  C  C188  1  0.53110000  0.95767000  0.03166000  1
  C  C189  1  0.51280000  0.94441000  0.99958000  1
  C  C190  1  0.56080000  0.91111000  0.06678000  1
  C  C191  1  0.63020000  0.90281000  0.07118000  1
  C  C192  1  0.65500000  0.85745000  0.10270000  1
  C  C193  1  0.61290000  0.81983000  0.12814000  1
  C  C194  1  0.54480000  0.82773000  0.12194000  1
  C  C195  1  0.51800000  0.87347000  0.09186000  1
  C  C196  1  0.63980000  0.77028000  0.16064000  1
  C  C197  1  0.55580000  0.77257000  0.00106000  1
  C  C198  1  0.48990000  0.78887000  0.00886000  1
  C  C199  1  0.47550000  0.84503000  0.00794000  1
  C  C200  1  0.52700000  0.88490000  0.99920000  1
  C  C201  1  0.59290000  0.86860000  0.99140000  1
  C  C202  1  0.60730000  0.81244000  0.99232000  1
  C  C203  1  0.57720000  0.69410000  0.99860000  1
  C  C204  1  0.31280000  0.52980000  0.62240000  1
  C  C205  1  0.34910000  0.58690000  0.59300000  1
  C  C206  1  0.32410000  0.61230000  0.55760000  1
  C  C207  1  0.35610000  0.66090000  0.53340000  1
  C  C208  1  0.42250000  0.67690000  0.54560000  1
  C  C209  1  0.45120000  0.64730000  0.58180000  1
  C  C210  1  0.41330000  0.59940000  0.60660000  1
  C  C211  1  0.45920000  0.72620000  0.51760000  1
  C  C212  1  0.48280000  0.72550000  0.48140000  1
  C  C213  1  0.52110000  0.77050000  0.45800000  1
  C  C214  1  0.53820000  0.81480000  0.46980000  1
  C  C215  1  0.51550000  0.81560000  0.50560000  1
  C  C216  1  0.47600000  0.77180000  0.53000000  1
  C  C217  1  0.48730000  0.62430000  0.48420000  1
  C  C218  1  0.45900000  0.67920000  0.46580000  1
  C  C219  1  0.41340000  0.68850000  0.43540000  1
  C  C220  1  0.39600000  0.64280000  0.42340000  1
  C  C221  1  0.42430000  0.58790000  0.44180000  1
  C  C222  1  0.46990000  0.57870000  0.47220000  1
  C  C223  1  0.37900000  0.54760000  0.43080000  1
  C  C224  1  0.54240000  0.76770000  0.42060000  1
  C  C225  1  0.59560000  0.72840000  0.41960000  1
  C  C226  1  0.61720000  0.72670000  0.38280000  1
  C  C227  1  0.58640000  0.76470000  0.34860000  1
  C  C228  1  0.53490000  0.80290000  0.34900000  1
  C  C229  1  0.51680000  0.80470000  0.38720000  1
  C  C230  1  0.61030000  0.75910000  0.30960000  1
  C  C231  1  0.57630000  0.86060000  0.44380000  1
  C  C232  1  0.64770000  0.85150000  0.43540000  1
  C  C233  1  0.68060000  0.89900000  0.40760000  1
  C  C234  1  0.64710000  0.95530000  0.39040000  1
  C  C235  1  0.57730000  0.96190000  0.39680000  1
  C  C236  1  0.54030000  0.91610000  0.42520000  1
  C  C237  1  0.67160000  0.00330000  0.35740000  1
  C  C238  1  0.60790000  0.86150000  0.52940000  1
  C  C239  1  0.53930000  0.86360000  0.51940000  1
  C  C240  1  0.49550000  0.90670000  0.52380000  1
  C  C241  1  0.52020000  0.94760000  0.53840000  1
  C  C242  1  0.58890000  0.94540000  0.54840000  1
  C  C243  1  0.63270000  0.90230000  0.54400000  1
  C  C244  1  0.61300000  0.98780000  0.56780000  1
  C  C245  1  0.44120000  0.77960000  0.56380000  1
  C  C246  1  0.37160000  0.77880000  0.56780000  1
  C  C247  1  0.34200000  0.78650000  0.60020000  1
  C  C248  1  0.38160000  0.79460000  0.63020000  1
  C  C249  1  0.44960000  0.79500000  0.62700000  1
  C  C250  1  0.47950000  0.78470000  0.59460000  1
  C  C251  1  0.34670000  0.81251000  0.66238000  1
  C  C252  1  0.44230000  0.47860000  0.75060000  1
  C  C253  1  0.50270000  0.51400000  0.75280000  1
  C  C254  1  0.54340000  0.49250000  0.78560000  1
  C  C255  1  0.59930000  0.52090000  0.78920000  1
  C  C256  1  0.61760000  0.56870000  0.75920000  1
  C  C257  1  0.57730000  0.59300000  0.72420000  1
  C  C258  1  0.51800000  0.56470000  0.72180000  1
  C  C259  1  0.68790000  0.59600000  0.76000000  1
  C  C260  1  0.74620000  0.56190000  0.76080000  1
  C  C261  1  0.80920000  0.58630000  0.76220000  1
  C  C262  1  0.87520000  0.55170000  0.76160000  1
  C  C263  1  0.89150000  0.53370000  0.73080000  1
  C  C264  1  0.95070000  0.49880000  0.73320000  1
  C  C265  1  0.99270000  0.48360000  0.76420000  1
  C  C266  1  0.97480000  0.50360000  0.79360000  1
  C  C267  1  0.91650000  0.53740000  0.79360000  1
  C  C268  1  0.05520000  0.44950000  0.76560000  1
  C  C269  1  0.73200000  0.39090000  0.75980000  1
  C  C270  1  0.75350000  0.40040000  0.79300000  1
  C  C271  1  0.75890000  0.45650000  0.79320000  1
  C  C272  1  0.74280000  0.50300000  0.76020000  1
  C  C273  1  0.72130000  0.49340000  0.72700000  1
  C  C274  1  0.71590000  0.43740000  0.72680000  1
  C  C275  1  0.72210000  0.32190000  0.76280000  1
  C  C276  1  0.47400000  0.33370000  0.72280000  1
  C  C277  1  0.55070000  0.33000000  0.71280000  1
  C  C278  1  0.34330000  0.38010000  0.86100000  1
  C  C279  1  0.37250000  0.37740000  0.90060000  1
  C  C280  1  0.08300000  0.27720000  0.73640000  1
  C  C281  1  0.03020000  0.23730000  0.72940000  1
  C  C282  1  0.10480000  0.23822000  0.83936000  1
  C  C283  1  0.08140000  0.18881000  0.87118000  1
  C  C284  1  0.12710000  0.15532000  0.89556000  1
  C  C285  1  0.10940000  0.10781000  0.92858000  1
  C  C286  1  0.04050000  0.09580000  0.93420000  1
  C  C287  1  0.99240000  0.12950000  0.90960000  1
  C  C288  1  0.01320000  0.17740000  0.87740000  1
  C  C289  1  0.01890000  0.04598000  0.96744000  1
  C  C290  1  0.03110000  0.98933000  0.96834000  1
  C  C291  1  0.01280000  0.94399000  0.00042000  1
  C  C292  1  0.06080000  0.97789000  0.93322000  1
  C  C293  1  0.13020000  0.97399000  0.92882000  1
  C  C294  1  0.15500000  0.96015000  0.89730000  1
  C  C295  1  0.11290000  0.94797000  0.87186000  1
  C  C296  1  0.04480000  0.94967000  0.87806000  1
  C  C297  1  0.01800000  0.96533000  0.90814000  1
  C  C298  1  0.13980000  0.93092000  0.83936000  1
  C  C299  1  0.05580000  0.77363000  0.99894000  1
  C  C300  1  0.98990000  0.79773000  0.99114000  1
  C  C301  1  0.97550000  0.85297000  0.99206000  1
  C  C302  1  0.02700000  0.88410000  0.00080000  1
  C  C303  1  0.09290000  0.86000000  0.00860000  1
  C  C304  1  0.10730000  0.80476000  0.00768000  1
  C  C305  1  0.07720000  0.69270000  0.00140000  1
  C  C306  1  0.18720000  0.84780000  0.62240000  1
  C  C307  1  0.15090000  0.82010000  0.59300000  1
  C  C308  1  0.17590000  0.83010000  0.55760000  1
  C  C309  1  0.14390000  0.80570000  0.53340000  1
  C  C310  1  0.07750000  0.77750000  0.54560000  1
  C  C311  1  0.04880000  0.77090000  0.58180000  1
  C  C312  1  0.08670000  0.79400000  0.60660000  1
  C  C313  1  0.04080000  0.75620000  0.51760000  1
  C  C314  1  0.01720000  0.79310000  0.48140000  1
  C  C315  1  0.97890000  0.77150000  0.45800000  1
  C  C316  1  0.96180000  0.71540000  0.46980000  1
  C  C317  1  0.98450000  0.67880000  0.50560000  1
  C  C318  1  0.02400000  0.69820000  0.53000000  1
  C  C319  1  0.01270000  0.89150000  0.48420000  1
  C  C320  1  0.04100000  0.85500000  0.46580000  1
  C  C321  1  0.08660000  0.87610000  0.43540000  1
  C  C322  1  0.10400000  0.93380000  0.42340000  1
  C  C323  1  0.07570000  0.97030000  0.44180000  1
  C  C324  1  0.03010000  0.94910000  0.47220000  1
  C  C325  1  0.12100000  0.02160000  0.43080000  1
  C  C326  1  0.95760000  0.81170000  0.42060000  1
  C  C327  1  0.90440000  0.85200000  0.41960000  1
  C  C328  1  0.88280000  0.89050000  0.38280000  1
  C  C329  1  0.91360000  0.88670000  0.34860000  1
  C  C330  1  0.96510000  0.84810000  0.34900000  1
  C  C331  1  0.98320000  0.80810000  0.38720000  1
  C  C332  1  0.88970000  0.93130000  0.30960000  1
  C  C333  1  0.92370000  0.69560000  0.44380000  1
  C  C334  1  0.85230000  0.71310000  0.43540000  1
  C  C335  1  0.81940000  0.69340000  0.40760000  1
  C  C336  1  0.85290000  0.65430000  0.39040000  1
  C  C337  1  0.92270000  0.64130000  0.39680000  1
  C  C338  1  0.95970000  0.65870000  0.42520000  1
  C  C339  1  0.82840000  0.63930000  0.35740000  1
  C  C340  1  0.89210000  0.60910000  0.52940000  1
  C  C341  1  0.96070000  0.61700000  0.51940000  1
  C  C342  1  0.00450000  0.56950000  0.52380000  1
  C  C343  1  0.97980000  0.51400000  0.53840000  1
  C  C344  1  0.91110000  0.50620000  0.54840000  1
  C  C345  1  0.86730000  0.55370000  0.54400000  1
  C  C346  1  0.88700000  0.44440000  0.56780000  1
  C  C347  1  0.05880000  0.65660000  0.56380000  1
  C  C348  1  0.12840000  0.65340000  0.56780000  1
  C  C349  1  0.15800000  0.61330000  0.60020000  1
  C  C350  1  0.11840000  0.57520000  0.63020000  1
  C  C351  1  0.05040000  0.57800000  0.62700000  1
  C  C352  1  0.02050000  0.62070000  0.59460000  1
  C  C353  1  0.15330000  0.52511000  0.66238000  1
  C  C354  1  0.05770000  0.77080000  0.75060000  1
  C  C355  1  0.99730000  0.73320000  0.75280000  1
  C  C356  1  0.95660000  0.72190000  0.78560000  1
  C  C357  1  0.90070000  0.68990000  0.78920000  1
  C  C358  1  0.88240000  0.67210000  0.75920000  1
  C  C359  1  0.92270000  0.68280000  0.72420000  1
  C  C360  1  0.98200000  0.71350000  0.72180000  1
  C  C361  1  0.81210000  0.64400000  0.76000000  1
  C  C362  1  0.75380000  0.67730000  0.76080000  1
  C  C363  1  0.69080000  0.65150000  0.76220000  1
  C  C364  1  0.62480000  0.68670000  0.76160000  1
  C  C365  1  0.60850000  0.73550000  0.73080000  1
  C  C366  1  0.54930000  0.76800000  0.73320000  1
  C  C367  1  0.50730000  0.75220000  0.76420000  1
  C  C368  1  0.52520000  0.70280000  0.79360000  1
  C  C369  1  0.58350000  0.66900000  0.79360000  1
  C  C370  1  0.44480000  0.78490000  0.76560000  1
  C  C371  1  0.76800000  0.84930000  0.75980000  1
  C  C372  1  0.74650000  0.80660000  0.79300000  1
  C  C373  1  0.74110000  0.75030000  0.79320000  1
  C  C374  1  0.75720000  0.73680000  0.76020000  1
  C  C375  1  0.77870000  0.77960000  0.72700000  1
  C  C376  1  0.78410000  0.83580000  0.72680000  1
  C  C377  1  0.77790000  0.91530000  0.76280000  1
  C  C378  1  0.02600000  0.94350000  0.72280000  1
  C  C379  1  0.94930000  0.95720000  0.71280000  1
  C  C380  1  0.15670000  0.75890000  0.86100000  1
  C  C381  1  0.12750000  0.72200000  0.90060000  1
  C  C382  1  0.41700000  0.98640000  0.73640000  1
  C  C383  1  0.46980000  0.03330000  0.72940000  1
  C  C384  1  0.39520000  0.92242000  0.83936000  1
  C  C385  1  0.41860000  0.94001000  0.87118000  1
  C  C386  1  0.37290000  0.94912000  0.89556000  1
  C  C387  1  0.39060000  0.96361000  0.92858000  1
  C  C388  1  0.45950000  0.97000000  0.93420000  1
  C  C389  1  0.50760000  0.96090000  0.90960000  1
  C  C390  1  0.48680000  0.94520000  0.87740000  1
  C  C391  1  0.48110000  0.98658000  0.96744000  1
  C  C392  1  0.46890000  0.04233000  0.96834000  1
  C  C393  1  0.48720000  0.05559000  0.00042000  1
  C  C394  1  0.43920000  0.08889000  0.93322000  1
  C  C395  1  0.36980000  0.09719000  0.92882000  1
  C  C396  1  0.34500000  0.14255000  0.89730000  1
  C  C397  1  0.38710000  0.18017000  0.87186000  1
  C  C398  1  0.45520000  0.17227000  0.87806000  1
  C  C399  1  0.48200000  0.12653000  0.90814000  1
  C  C400  1  0.36020000  0.22972000  0.83936000  1
  C  C401  1  0.44420000  0.22743000  0.99894000  1
  C  C402  1  0.51010000  0.21113000  0.99114000  1
  C  C403  1  0.52450000  0.15497000  0.99206000  1
  C  C404  1  0.47300000  0.11510000  0.00080000  1
  C  C405  1  0.40710000  0.13140000  0.00860000  1
  C  C406  1  0.39270000  0.18756000  0.00768000  1
  C  C407  1  0.42280000  0.30590000  0.00140000  1
  H  H408  1  0.71461000  0.40236000  0.45092000  1
  H  H409  1  0.66415000  0.31657000  0.49052000  1
  H  H410  1  0.50675000  0.34192000  0.41028000  1
  H  H411  1  0.56942000  0.42328000  0.36868000  1
  H  H412  1  0.48155000  0.38210000  0.49496000  1
  H  H413  1  0.60597000  0.27401000  0.57718000  1
  H  H414  1  0.63515000  0.35082000  0.59736000  1
  H  H415  1  0.51073000  0.45891000  0.51514000  1
  H  H416  1  0.38353000  0.29632000  0.55734000  1
  H  H417  1  0.34753000  0.30002000  0.61876000  1
  H  H418  1  0.48756000  0.17328000  0.67382000  1
  H  H419  1  0.51517000  0.16613000  0.61132000  1
  H  H420  1  0.32844000  0.18420000  0.55236000  1
  H  H421  1  0.27365000  0.10669000  0.59978000  1
  H  H422  1  0.44654000  0.00322000  0.61754000  1
  H  H423  1  0.50604000  0.07783000  0.56870000  1
  H  H424  1  0.36210000  0.16800000  0.47358000  1
  H  H425  1  0.55143000  0.09181167  0.48304000  1
  H  H426  1  0.50972000  0.02293000  0.45866000  1
  H  H427  1  0.32039000  0.09913000  0.44920000  1
  H  H428  1  0.65625000  0.22711000  0.45144000  1
  H  H429  1  0.70649000  0.21363000  0.39746000  1
  H  H430  1  0.52273000  0.19800000  0.35408000  1
  H  H431  1  0.47205000  0.21893000  0.40650000  1
  H  H432  1  0.46808000  0.54218000  0.19454000  1
  H  H433  1  0.37425000  0.49217000  0.18772000  1
  H  H434  1  0.40929000  0.37348000  0.29602000  1
  H  H435  1  0.51130000  0.42108000  0.30008000  1
  H  H436  1  0.13685000  0.45542000  0.29142000  1
  H  H437  1  0.03826000  0.51445000  0.28782000  1
  H  H438  1  0.99586000  0.50629000  0.18450000  1
  H  H439  1  0.09426000  0.44980000  0.18518000  1
  H  H440  1  0.23554000  0.63139000  0.18434000  1
  H  H441  1  0.22643000  0.53703000  0.18400000  1
  H  H442  1  0.28972000  0.47481000  0.29556000  1
  H  H443  1  0.29884000  0.56917000  0.29590000  1
  H  H444  1  0.82591000  0.83649000  0.10922000  1
  H  H445  1  0.85663000  0.91476000  0.05400000  1
  H  H446  1  0.05472000  0.87870000  0.08624000  1
  H  H447  1  0.02016000  0.79856000  0.13974000  1
  H  H448  1  0.83944000  0.01935000  0.05322000  1
  H  H449  1  0.79696000  0.04099000  0.10668000  1
  H  H450  1  0.98529000  0.06010000  0.13870000  1
  H  H451  1  0.03022000  0.03269000  0.08854000  1
  H  H452  1  0.04527000  0.22357000  0.01484000  1
  H  H453  1  0.06950000  0.13057000  0.01328000  1
  H  H454  1  0.87193000  0.11872000  0.98542000  1
  H  H455  1  0.84770000  0.21172000  0.98698000  1
  H  H456  1  0.42497000  0.71164000  0.26668000  1
  H  H457  1  0.44393000  0.66962000  0.31824000  1
  H  H458  1  0.42245000  0.63147000  0.28404000  1
  H  H459  1  0.58416000  0.59119000  0.10414000  1
  H  H460  1  0.66973000  0.61033000  0.08162000  1
  H  H461  1  0.60711000  0.66826000  0.08328000  1
  H  H462  1  0.02137000  0.75438000  0.25826000  1
  H  H463  1  0.97508000  0.75387000  0.30298000  1
  H  H464  1  0.95226000  0.80956000  0.25576000  1
  H  H465  1  0.78539000  0.14672000  0.45092000  1
  H  H466  1  0.83585000  0.19291000  0.49052000  1
  H  H467  1  0.99325000  0.24780000  0.41028000  1
  H  H468  1  0.93058000  0.20804000  0.36868000  1
  H  H469  1  0.01845000  0.12294000  0.49496000  1
  H  H470  1  0.89403000  0.14881000  0.57718000  1
  H  H471  1  0.86485000  0.05182000  0.59736000  1
  H  H472  1  0.98927000  0.02595000  0.51514000  1
  H  H473  1  0.11647000  0.14634000  0.55734000  1
  H  H474  1  0.15247000  0.08122000  0.61876000  1
  H  H475  1  0.01244000  0.15290000  0.67382000  1
  H  H476  1  0.98483000  0.22255000  0.61132000  1
  H  H477  1  0.17156000  0.26344000  0.55236000  1
  H  H478  1  0.22635000  0.29353000  0.59978000  1
  H  H479  1  0.05346000  0.37924000  0.61754000  1
  H  H480  1  0.99396000  0.35347000  0.56870000  1
  H  H481  1  0.13790000  0.35842000  0.47358000  1
  H  H482  1  0.94857000  0.42514833  0.48304000  1
  H  H483  1  0.99028000  0.51841000  0.45866000  1
  H  H484  1  0.17961000  0.45167000  0.44920000  1
  H  H485  1  0.84375000  0.32145000  0.45144000  1
  H  H486  1  0.79351000  0.38891000  0.39746000  1
  H  H487  1  0.97727000  0.44792000  0.35408000  1
  H  H488  1  0.02795000  0.37457000  0.40650000  1
  H  H489  1  0.03192000  0.26328000  0.19454000  1
  H  H490  1  0.12575000  0.32011000  0.18772000  1
  H  H491  1  0.09071000  0.33050000  0.29602000  1
  H  H492  1  0.98870000  0.27884000  0.30008000  1
  H  H493  1  0.36315000  0.25316000  0.29142000  1
  H  H494  1  0.46174000  0.19773000  0.28782000  1
  H  H495  1  0.50414000  0.30921000  0.18450000  1
  H  H496  1  0.40574000  0.36502000  0.18518000  1
  H  H497  1  0.26446000  0.18427000  0.18434000  1
  H  H498  1  0.27357000  0.27897000  0.18400000  1
  H  H499  1  0.21028000  0.22963000  0.29556000  1
  H  H500  1  0.20116000  0.13493000  0.29590000  1
  H  H501  1  0.67409000  0.05429000  0.10922000  1
  H  H502  1  0.64337000  0.03124000  0.05400000  1
  H  H503  1  0.44528000  0.03506000  0.08624000  1
  H  H504  1  0.47984000  0.06170000  0.13974000  1
  H  H505  1  0.66056000  0.92743000  0.05322000  1
  H  H506  1  0.70304000  0.85233000  0.10668000  1
  H  H507  1  0.51471000  0.80120000  0.13870000  1
  H  H508  1  0.46978000  0.87877000  0.08854000  1
  H  H509  1  0.45473000  0.76159000  0.01484000  1
  H  H510  1  0.43050000  0.85615000  0.01328000  1
  H  H511  1  0.62807000  0.89586000  0.98542000  1
  H  H512  1  0.65230000  0.80130000  0.98698000  1
  H  H513  1  0.07503000  0.02168000  0.26668000  1
  H  H514  1  0.05607000  0.01214000  0.31824000  1
  H  H515  1  0.07755000  0.08449000  0.28404000  1
  H  H516  1  0.91584000  0.30467000  0.10414000  1
  H  H517  1  0.83027000  0.30805000  0.08162000  1
  H  H518  1  0.89289000  0.24846000  0.08328000  1
  H  H519  1  0.47863000  0.98736000  0.25826000  1
  H  H520  1  0.52492000  0.94315000  0.30298000  1
  H  H521  1  0.54774000  0.93468000  0.25576000  1
  H  H522  1  0.28539000  0.59764000  0.54908000  1
  H  H523  1  0.33585000  0.68343000  0.50948000  1
  H  H524  1  0.49325000  0.65808000  0.58972000  1
  H  H525  1  0.43058000  0.57672000  0.63132000  1
  H  H526  1  0.51845000  0.61790000  0.50504000  1
  H  H527  1  0.39403000  0.72599000  0.42282000  1
  H  H528  1  0.36485000  0.64918000  0.40264000  1
  H  H529  1  0.48927000  0.54109000  0.48486000  1
  H  H530  1  0.61647000  0.70368000  0.44266000  1
  H  H531  1  0.65247000  0.69998000  0.38124000  1
  H  H532  1  0.51244000  0.82672000  0.32618000  1
  H  H533  1  0.48483000  0.83387000  0.38868000  1
  H  H534  1  0.67156000  0.81580000  0.44764000  1
  H  H535  1  0.72635000  0.89331000  0.40022000  1
  H  H536  1  0.55346000  0.99678000  0.38246000  1
  H  H537  1  0.49396000  0.92217000  0.43130000  1
  H  H538  1  0.63790000  0.83200000  0.52642000  1
  H  H539  1  0.44857000  0.90818833  0.51696000  1
  H  H540  1  0.49028000  0.97707000  0.54134000  1
  H  H541  1  0.67961000  0.90087000  0.55080000  1
  H  H542  1  0.34375000  0.77289000  0.54856000  1
  H  H543  1  0.29351000  0.78637000  0.60254000  1
  H  H544  1  0.47727000  0.80200000  0.64592000  1
  H  H545  1  0.52795000  0.78107000  0.59350000  1
  H  H546  1  0.53192000  0.45782000  0.80546000  1
  H  H547  1  0.62575000  0.50783000  0.81228000  1
  H  H548  1  0.59071000  0.62652000  0.70398000  1
  H  H549  1  0.48870000  0.57892000  0.69992000  1
  H  H550  1  0.86315000  0.54458000  0.70858000  1
  H  H551  1  0.96174000  0.48555000  0.71218000  1
  H  H552  1  0.00414000  0.49371000  0.81550000  1
  H  H553  1  0.90574000  0.55020000  0.81482000  1
  H  H554  1  0.76446000  0.36861000  0.81566000  1
  H  H555  1  0.77357000  0.46297000  0.81600000  1
  H  H556  1  0.71028000  0.52519000  0.70444000  1
  H  H557  1  0.70116000  0.43083000  0.70410000  1
  H  H558  1  0.17409000  0.16351000  0.89078000  1
  H  H559  1  0.14337000  0.08524000  0.94600000  1
  H  H560  1  0.94528000  0.12130000  0.91376000  1
  H  H561  1  0.97984000  0.20144000  0.86026000  1
  H  H562  1  0.16056000  0.98065000  0.94678000  1
  H  H563  1  0.20304000  0.95901000  0.89332000  1
  H  H564  1  0.01471000  0.93990000  0.86130000  1
  H  H565  1  0.96978000  0.96731000  0.91146000  1
  H  H566  1  0.95473000  0.77643000  0.98516000  1
  H  H567  1  0.93050000  0.86943000  0.98672000  1
  H  H568  1  0.12807000  0.88128000  0.01458000  1
  H  H569  1  0.15230000  0.78828000  0.01302000  1
  H  H570  1  0.57503000  0.28836000  0.73332000  1
  H  H571  1  0.55607000  0.33038000  0.68176000  1
  H  H572  1  0.57755000  0.36853000  0.71596000  1
  H  H573  1  0.41584000  0.40881000  0.89586000  1
  H  H574  1  0.33027000  0.38967000  0.91838000  1
  H  H575  1  0.39289000  0.33174000  0.91672000  1
  H  H576  1  0.97863000  0.24562000  0.74174000  1
  H  H577  1  0.02492000  0.24613000  0.69702000  1
  H  H578  1  0.04774000  0.19044000  0.74424000  1
  H  H579  1  0.21461000  0.85328000  0.54908000  1
  H  H580  1  0.16415000  0.80709000  0.50948000  1
  H  H581  1  0.00675000  0.75220000  0.58972000  1
  H  H582  1  0.06942000  0.79196000  0.63132000  1
  H  H583  1  0.98155000  0.87706000  0.50504000  1
  H  H584  1  0.10597000  0.85119000  0.42282000  1
  H  H585  1  0.13515000  0.94818000  0.40264000  1
  H  H586  1  0.01073000  0.97405000  0.48486000  1
  H  H587  1  0.88353000  0.85366000  0.44266000  1
  H  H588  1  0.84753000  0.91878000  0.38124000  1
  H  H589  1  0.98756000  0.84710000  0.32618000  1
  H  H590  1  0.01517000  0.77745000  0.38868000  1
  H  H591  1  0.82844000  0.73656000  0.44764000  1
  H  H592  1  0.77365000  0.70647000  0.40022000  1
  H  H593  1  0.94654000  0.62076000  0.38246000  1
  H  H594  1  0.00604000  0.64653000  0.43130000  1
  H  H595  1  0.86210000  0.64158000  0.52642000  1
  H  H596  1  0.05143000  0.57485167  0.51696000  1
  H  H597  1  0.00972000  0.48159000  0.54134000  1
  H  H598  1  0.82039000  0.54833000  0.55080000  1
  H  H599  1  0.15625000  0.67855000  0.54856000  1
  H  H600  1  0.20649000  0.61109000  0.60254000  1
  H  H601  1  0.02273000  0.55208000  0.64592000  1
  H  H602  1  0.97205000  0.62543000  0.59350000  1
  H  H603  1  0.96808000  0.73672000  0.80546000  1
  H  H604  1  0.87425000  0.67989000  0.81228000  1
  H  H605  1  0.90929000  0.66950000  0.70398000  1
  H  H606  1  0.01130000  0.72116000  0.69992000  1
  H  H607  1  0.63685000  0.74684000  0.70858000  1
  H  H608  1  0.53826000  0.80227000  0.71218000  1
  H  H609  1  0.49586000  0.69079000  0.81550000  1
  H  H610  1  0.59426000  0.63498000  0.81482000  1
  H  H611  1  0.73554000  0.81573000  0.81566000  1
  H  H612  1  0.72643000  0.72103000  0.81600000  1
  H  H613  1  0.78972000  0.77037000  0.70444000  1
  H  H614  1  0.79884000  0.86507000  0.70410000  1
  H  H615  1  0.32591000  0.94571000  0.89078000  1
  H  H616  1  0.35663000  0.96876000  0.94600000  1
  H  H617  1  0.55472000  0.96494000  0.91376000  1
  H  H618  1  0.52016000  0.93830000  0.86026000  1
  H  H619  1  0.33944000  0.07257000  0.94678000  1
  H  H620  1  0.29696000  0.14767000  0.89332000  1
  H  H621  1  0.48529000  0.19880000  0.86130000  1
  H  H622  1  0.53022000  0.12123000  0.91146000  1
  H  H623  1  0.54527000  0.23841000  0.98516000  1
  H  H624  1  0.56950000  0.14385000  0.98672000  1
  H  H625  1  0.37193000  0.10414000  0.01458000  1
  H  H626  1  0.34770000  0.19870000  0.01302000  1
  H  H627  1  0.92497000  0.97832000  0.73332000  1
  H  H628  1  0.94393000  0.98786000  0.68176000  1
  H  H629  1  0.92245000  0.91551000  0.71596000  1
  H  H630  1  0.08416000  0.69533000  0.89586000  1
  H  H631  1  0.16973000  0.69195000  0.91838000  1
  H  H632  1  0.10711000  0.75154000  0.91672000  1
  H  H633  1  0.52137000  0.01264000  0.74174000  1
  H  H634  1  0.47508000  0.05685000  0.69702000  1
  H  H635  1  0.45226000  0.06532000  0.74424000  1
  O  O636  1  0.66440000  0.70822000  0.24396000  1
  O  O637  1  0.77630000  0.67019000  0.27502000  1
  O  O638  1  0.65780000  0.59857000  0.27266000  1
  O  O639  1  0.72940000  0.66142000  0.19876000  1
  O  O640  1  0.84880000  0.65400000  0.22140000  1
  O  O641  1  0.74980000  0.57174000  0.32032000  1
  O  O642  1  0.69400000  0.55706000  0.22068000  1
  O  O643  1  0.79720000  0.55622000  0.25816000  1
  O  O644  1  0.63500000  0.60047000  0.35886000  1
  O  O645  1  0.66040000  0.48060000  0.34020000  1
  O  O646  1  0.73160000  0.49640000  0.39200000  1
  O  O647  1  0.70960000  0.21297000  0.32466000  1
  O  O648  1  0.62210000  0.15464000  0.32652000  1
  O  O649  1  0.41800000  0.96100000  0.44800000  1
  O  O650  1  0.33310000  0.03700000  0.41080000  1
  O  O651  1  0.35970000  0.95642000  0.65856000  1
  O  O652  1  0.26060000  0.00774000  0.64752000  1
  O  O653  1  0.42500000  0.20901000  0.72158000  1
  O  O654  1  0.33650000  0.26959000  0.68782000  1
  O  O655  1  0.63800000  0.44520000  0.60260000  1
  O  O656  1  0.57730000  0.50960000  0.55020000  1
  O  O657  1  0.55890000  0.57194000  0.22692000  1
  O  O658  1  0.60430000  0.49449000  0.27482000  1
  O  O659  1  0.28320000  0.70770000  0.20040000  1
  O  O660  1  0.28010000  0.67220000  0.27480000  1
  O  O661  1  0.90140000  0.55766000  0.20828000  1
  O  O662  1  0.93850000  0.57232000  0.26136000  1
  O  O663  1  0.83280000  0.76229000  0.16902000  1
  O  O664  1  0.93970000  0.72432000  0.17856000  1
  O  O665  1  0.79840000  0.05282000  0.17116000  1
  O  O666  1  0.89560000  0.09709000  0.17562000  1
  O  O667  1  0.53710000  0.66852000  0.24036000  1
  O  O668  1  0.57030000  0.66087000  0.30246000  1
  O  O669  1  0.86640000  0.75227000  0.24146000  1
  O  O670  1  0.92400000  0.66957000  0.27846000  1
  O  O671  1  0.72910000  0.60314000  0.14552000  1
  O  O672  1  0.61560000  0.63147000  0.16086000  1
  O  O673  1  0.86520000  0.30400000  0.99180000  1
  O  O674  1  0.97630000  0.31560000  0.00740000  1
  O  O675  1  0.83560000  0.04782000  0.24396000  1
  O  O676  1  0.72370000  0.05479000  0.27502000  1
  O  O677  1  0.84220000  0.12877000  0.27266000  1
  O  O678  1  0.77060000  0.13982000  0.19876000  1
  O  O679  1  0.65120000  0.12460000  0.22140000  1
  O  O680  1  0.75020000  0.10794000  0.32032000  1
  O  O681  1  0.80600000  0.22226000  0.22068000  1
  O  O682  1  0.70280000  0.18562000  0.25816000  1
  O  O683  1  0.86500000  0.04067000  0.35886000  1
  O  O684  1  0.83960000  0.17920000  0.34020000  1
  O  O685  1  0.76840000  0.11160000  0.39200000  1
  O  O686  1  0.79040000  0.46237000  0.32466000  1
  O  O687  1  0.87790000  0.51884000  0.32652000  1
  O  O688  1  0.08200000  0.59100000  0.44800000  1
  O  O689  1  0.16690000  0.55220000  0.41080000  1
  O  O690  1  0.14030000  0.38502000  0.65856000  1
  O  O691  1  0.23940000  0.34474000  0.64752000  1
  O  O692  1  0.07500000  0.06941000  0.72158000  1
  O  O693  1  0.16350000  0.04259000  0.68782000  1
  O  O694  1  0.86200000  0.95220000  0.60260000  1
  O  O695  1  0.92270000  0.94020000  0.55020000  1
  O  O696  1  0.94110000  0.20114000  0.22692000  1
  O  O697  1  0.89570000  0.23069000  0.27482000  1
  O  O698  1  0.21680000  0.09190000  0.20040000  1
  O  O699  1  0.21990000  0.05300000  0.27480000  1
  O  O700  1  0.59860000  0.23406000  0.20828000  1
  O  O701  1  0.56150000  0.16632000  0.26136000  1
  O  O702  1  0.66720000  0.06869000  0.16902000  1
  O  O703  1  0.56030000  0.09712000  0.17856000  1
  O  O704  1  0.70160000  0.77602000  0.17116000  1
  O  O705  1  0.60440000  0.72729000  0.17562000  1
  O  O706  1  0.96290000  0.09112000  0.24036000  1
  O  O707  1  0.92970000  0.03667000  0.30246000  1
  O  O708  1  0.63360000  0.00627000  0.24146000  1
  O  O709  1  0.57600000  0.05197000  0.27846000  1
  O  O710  1  0.77090000  0.25134000  0.14552000  1
  O  O711  1  0.88440000  0.20767000  0.16086000  1
  O  O712  1  0.63480000  0.70420000  0.99180000  1
  O  O713  1  0.52370000  0.67700000  0.00740000  1
  O  O714  1  0.33560000  0.29178000  0.75604000  1
  O  O715  1  0.22370000  0.32981000  0.72498000  1
  O  O716  1  0.34220000  0.40143000  0.72734000  1
  O  O717  1  0.27060000  0.33858000  0.80124000  1
  O  O718  1  0.15120000  0.34600000  0.77860000  1
  O  O719  1  0.25020000  0.42826000  0.67968000  1
  O  O720  1  0.30600000  0.44294000  0.77932000  1
  O  O721  1  0.20280000  0.44378000  0.74184000  1
  O  O722  1  0.36500000  0.39953000  0.64114000  1
  O  O723  1  0.33960000  0.51940000  0.65980000  1
  O  O724  1  0.26840000  0.50360000  0.60800000  1
  O  O725  1  0.29040000  0.78703000  0.67534000  1
  O  O726  1  0.37790000  0.84536000  0.67348000  1
  O  O727  1  0.58200000  0.03900000  0.55200000  1
  O  O728  1  0.66690000  0.96300000  0.58920000  1
  O  O729  1  0.64030000  0.04358000  0.34144000  1
  O  O730  1  0.73940000  0.99226000  0.35248000  1
  O  O731  1  0.57500000  0.79099000  0.27842000  1
  O  O732  1  0.66350000  0.73041000  0.31218000  1
  O  O733  1  0.36200000  0.55480000  0.39740000  1
  O  O734  1  0.42270000  0.49040000  0.44980000  1
  O  O735  1  0.44110000  0.42806000  0.77308000  1
  O  O736  1  0.39570000  0.50551000  0.72518000  1
  O  O737  1  0.71680000  0.29230000  0.79960000  1
  O  O738  1  0.71990000  0.32780000  0.72520000  1
  O  O739  1  0.09860000  0.44234000  0.79172000  1
  O  O740  1  0.06150000  0.42768000  0.73864000  1
  O  O741  1  0.16720000  0.23771000  0.83098000  1
  O  O742  1  0.06030000  0.27568000  0.82144000  1
  O  O743  1  0.20160000  0.94718000  0.82884000  1
  O  O744  1  0.10440000  0.90291000  0.82438000  1
  O  O745  1  0.46290000  0.33148000  0.75964000  1
  O  O746  1  0.42970000  0.33913000  0.69754000  1
  O  O747  1  0.13360000  0.24773000  0.75854000  1
  O  O748  1  0.07600000  0.33043000  0.72154000  1
  O  O749  1  0.27090000  0.39686000  0.85448000  1
  O  O750  1  0.38440000  0.36853000  0.83914000  1
  O  O751  1  0.13480000  0.69600000  0.00820000  1
  O  O752  1  0.02370000  0.68440000  0.99260000  1
  O  O753  1  0.16440000  0.95218000  0.75604000  1
  O  O754  1  0.27630000  0.94521000  0.72498000  1
  O  O755  1  0.15780000  0.87123000  0.72734000  1
  O  O756  1  0.22940000  0.86018000  0.80124000  1
  O  O757  1  0.34880000  0.87540000  0.77860000  1
  O  O758  1  0.24980000  0.89206000  0.67968000  1
  O  O759  1  0.19400000  0.77774000  0.77932000  1
  O  O760  1  0.29720000  0.81438000  0.74184000  1
  O  O761  1  0.13500000  0.95933000  0.64114000  1
  O  O762  1  0.16040000  0.82080000  0.65980000  1
  O  O763  1  0.23160000  0.88840000  0.60800000  1
  O  O764  1  0.20960000  0.53763000  0.67534000  1
  O  O765  1  0.12210000  0.48116000  0.67348000  1
  O  O766  1  0.91800000  0.40900000  0.55200000  1
  O  O767  1  0.83310000  0.44780000  0.58920000  1
  O  O768  1  0.85970000  0.61498000  0.34144000  1
  O  O769  1  0.76060000  0.65526000  0.35248000  1
  O  O770  1  0.92500000  0.93059000  0.27842000  1
  O  O771  1  0.83650000  0.95741000  0.31218000  1
  O  O772  1  0.13800000  0.04780000  0.39740000  1
  O  O773  1  0.07730000  0.05980000  0.44980000  1
  O  O774  1  0.05890000  0.79886000  0.77308000  1
  O  O775  1  0.10430000  0.76931000  0.72518000  1
  O  O776  1  0.78320000  0.90810000  0.79960000  1
  O  O777  1  0.78010000  0.94700000  0.72520000  1
  O  O778  1  0.40140000  0.76594000  0.79172000  1
  O  O779  1  0.43850000  0.83368000  0.73864000  1
  O  O780  1  0.33280000  0.93131000  0.83098000  1
  O  O781  1  0.43970000  0.90288000  0.82144000  1
  O  O782  1  0.29840000  0.22398000  0.82884000  1
  O  O783  1  0.39560000  0.27271000  0.82438000  1
  O  O784  1  0.03710000  0.90888000  0.75964000  1
  O  O785  1  0.07030000  0.96333000  0.69754000  1
  O  O786  1  0.36640000  0.99373000  0.75854000  1
  O  O787  1  0.42400000  0.94803000  0.72154000  1
  O  O788  1  0.22910000  0.74866000  0.85448000  1
  O  O789  1  0.11560000  0.79233000  0.83914000  1
  O  O790  1  0.36520000  0.29580000  0.00820000  1
  O  O791  1  0.47630000  0.32300000  0.99260000  1
  Zr  Zr792  1  0.70912000  0.51979000  0.28590000  1
  Zr  Zr793  1  0.84910000  0.60385000  0.28624000  1
  Zr  Zr794  1  0.68524000  0.65032000  0.30452000  1
  Zr  Zr795  1  0.79411000  0.59332000  0.19894000  1
  Zr  Zr796  1  0.77162000  0.72363000  0.21802000  1
  Zr  Zr797  1  0.63019000  0.64057000  0.21680000  1
  Zr  Zr798  1  0.79088000  0.19431000  0.28590000  1
  Zr  Zr799  1  0.65090000  0.10991000  0.28624000  1
  Zr  Zr800  1  0.81476000  0.04516000  0.30452000  1
  Zr  Zr801  1  0.70589000  0.20774000  0.19894000  1
  Zr  Zr802  1  0.72838000  0.05835000  0.21802000  1
  Zr  Zr803  1  0.86981000  0.14263000  0.21680000  1
  Zr  Zr804  1  0.29088000  0.48021000  0.71410000  1
  Zr  Zr805  1  0.15090000  0.39615000  0.71376000  1
  Zr  Zr806  1  0.31476000  0.34968000  0.69548000  1
  Zr  Zr807  1  0.20589000  0.40668000  0.80106000  1
  Zr  Zr808  1  0.22838000  0.27637000  0.78198000  1
  Zr  Zr809  1  0.36981000  0.35943000  0.78320000  1
  Zr  Zr810  1  0.20912000  0.80569000  0.71410000  1
  Zr  Zr811  1  0.34910000  0.89009000  0.71376000  1
  Zr  Zr812  1  0.18524000  0.95484000  0.69548000  1
  Zr  Zr813  1  0.29411000  0.79226000  0.80106000  1
  Zr  Zr814  1  0.27162000  0.94165000  0.78198000  1
  Zr  Zr815  1  0.13019000  0.85737000  0.78320000  1
