# generated using pymatgen
data_Zr8H84C124N4O55
_symmetry_space_group_name_H-M   'P 1'
_cell_length_a   26.54800000
_cell_length_b   32.22820000
_cell_length_c   32.22820000
_cell_angle_alpha   120.00000000
_cell_angle_beta   90.00000000
_cell_angle_gamma   90.00000000
_symmetry_Int_Tables_number   1
_chemical_formula_structural   Zr8H84C124N4O55
_chemical_formula_sum   'Zr24 H252 C372 N12 O165'
_cell_volume   23880.01200950
_cell_formula_units_Z   3
loop_
 _symmetry_equiv_pos_site_id
 _symmetry_equiv_pos_as_xyz
  1  'x, y, z'
loop_
 _atom_site_type_symbol
 _atom_site_label
 _atom_site_symmetry_multiplicity
 _atom_site_fract_x
 _atom_site_fract_y
 _atom_site_fract_z
 _atom_site_occupancy
  Zr  Zr0  1  0.52269000  0.40410000  0.69210000  1
  Zr  Zr1  1  0.41516000  0.35953000  0.62255000  1
  Zr  Zr2  1  0.02269000  0.69210000  0.28800000  1
  Zr  Zr3  1  0.91516000  0.62255000  0.26302000  1
  Zr  Zr4  1  0.52269000  0.28800000  0.59590000  1
  Zr  Zr5  1  0.41516000  0.26302000  0.64047000  1
  Zr  Zr6  1  0.02269000  0.59590000  0.30790000  1
  Zr  Zr7  1  0.91516000  0.64047000  0.37745000  1
  Zr  Zr8  1  0.52269000  0.30790000  0.71200000  1
  Zr  Zr9  1  0.41516000  0.37745000  0.73698000  1
  Zr  Zr10  1  0.02269000  0.71200000  0.40410000  1
  Zr  Zr11  1  0.91516000  0.73698000  0.35953000  1
  Zr  Zr12  1  0.47731000  0.59590000  0.30790000  1
  Zr  Zr13  1  0.58484000  0.64047000  0.37745000  1
  Zr  Zr14  1  0.97731000  0.30790000  0.71200000  1
  Zr  Zr15  1  0.08484000  0.37745000  0.73698000  1
  Zr  Zr16  1  0.47731000  0.71200000  0.40410000  1
  Zr  Zr17  1  0.58484000  0.73698000  0.35953000  1
  Zr  Zr18  1  0.97731000  0.40410000  0.69210000  1
  Zr  Zr19  1  0.08484000  0.35953000  0.62255000  1
  Zr  Zr20  1  0.47731000  0.69210000  0.28800000  1
  Zr  Zr21  1  0.58484000  0.62255000  0.26302000  1
  Zr  Zr22  1  0.97731000  0.28800000  0.59590000  1
  Zr  Zr23  1  0.08484000  0.26302000  0.64047000  1
  H  H24  1  0.68795000  0.53033000  0.85918000  1
  H  H25  1  0.64108000  0.48191000  0.79101000  1
  H  H26  1  0.64401000  0.37654000  0.82326000  1
  H  H27  1  0.69089000  0.42497000  0.89143000  1
  H  H28  1  0.66683000  0.53111000  0.05368000  1
  H  H29  1  0.64179000  0.56937000  0.13298000  1
  H  H30  1  0.64523000  0.69231000  0.13107000  1
  H  H31  1  0.69175000  0.65429000  0.06384000  1
  H  H32  1  0.62054000  0.49349000  0.98157000  1
  H  H33  1  0.52819000  0.50319000  0.96196000  1
  H  H34  1  0.55949000  0.61333000  0.95438000  1
  H  H35  1  0.64358000  0.60443000  0.96153000  1
  H  H36  1  0.49820000  0.27238000  0.84408000  1
  H  H37  1  0.45201000  0.28144000  0.80587000  1
  H  H38  1  0.43554000  0.29937000  0.86879000  1
  H  H39  1  0.56739000  0.63389000  0.08708000  1
  H  H40  1  0.50441000  0.64806000  0.07192000  1
  H  H41  1  0.51421000  0.59113000  0.07245000  1
  H  H42  1  0.18795000  0.85918000  0.32885000  1
  H  H43  1  0.14108000  0.79101000  0.30910000  1
  H  H44  1  0.14401000  0.82326000  0.44672000  1
  H  H45  1  0.19089000  0.89143000  0.46646000  1
  H  H46  1  0.16683000  0.05368000  0.52257000  1
  H  H47  1  0.14179000  0.13298000  0.56361000  1
  H  H48  1  0.14523000  0.13107000  0.43876000  1
  H  H49  1  0.19175000  0.06384000  0.40955000  1
  H  H50  1  0.12054000  0.98157000  0.48808000  1
  H  H51  1  0.02819000  0.96196000  0.45877000  1
  H  H52  1  0.05949000  0.95438000  0.34105000  1
  H  H53  1  0.14358000  0.96153000  0.35710000  1
  H  H54  1  0.99820000  0.84408000  0.57170000  1
  H  H55  1  0.95201000  0.80587000  0.52443000  1
  H  H56  1  0.93554000  0.86879000  0.56942000  1
  H  H57  1  0.06739000  0.08708000  0.45319000  1
  H  H58  1  0.00441000  0.07192000  0.42386000  1
  H  H59  1  0.01421000  0.07245000  0.48132000  1
  H  H60  1  0.68795000  0.32885000  0.46967000  1
  H  H61  1  0.64108000  0.30910000  0.51809000  1
  H  H62  1  0.64401000  0.44672000  0.62346000  1
  H  H63  1  0.69089000  0.46646000  0.57503000  1
  H  H64  1  0.66683000  0.52257000  0.46889000  1
  H  H65  1  0.64179000  0.56361000  0.43063000  1
  H  H66  1  0.64523000  0.43876000  0.30769000  1
  H  H67  1  0.69175000  0.40955000  0.34571000  1
  H  H68  1  0.62054000  0.48808000  0.50651000  1
  H  H69  1  0.52819000  0.45877000  0.49681000  1
  H  H70  1  0.55949000  0.34105000  0.38667000  1
  H  H71  1  0.64358000  0.35710000  0.39557000  1
  H  H72  1  0.49820000  0.57170000  0.72762000  1
  H  H73  1  0.45201000  0.52443000  0.71856000  1
  H  H74  1  0.43554000  0.56942000  0.70063000  1
  H  H75  1  0.56739000  0.45319000  0.36611000  1
  H  H76  1  0.50441000  0.42386000  0.35194000  1
  H  H77  1  0.51421000  0.48132000  0.40887000  1
  H  H78  1  0.18795000  0.46967000  0.14082000  1
  H  H79  1  0.14108000  0.51809000  0.20899000  1
  H  H80  1  0.14401000  0.62346000  0.17674000  1
  H  H81  1  0.19089000  0.57503000  0.10857000  1
  H  H82  1  0.16683000  0.46889000  0.94632000  1
  H  H83  1  0.14179000  0.43063000  0.86702000  1
  H  H84  1  0.14523000  0.30769000  0.86893000  1
  H  H85  1  0.19175000  0.34571000  0.93616000  1
  H  H86  1  0.12054000  0.50651000  0.01843000  1
  H  H87  1  0.02819000  0.49681000  0.03804000  1
  H  H88  1  0.05949000  0.38667000  0.04562000  1
  H  H89  1  0.14358000  0.39557000  0.03847000  1
  H  H90  1  0.99820000  0.72762000  0.15592000  1
  H  H91  1  0.95201000  0.71856000  0.19413000  1
  H  H92  1  0.93554000  0.70063000  0.13121000  1
  H  H93  1  0.06739000  0.36611000  0.91292000  1
  H  H94  1  0.00441000  0.35194000  0.92808000  1
  H  H95  1  0.01421000  0.40887000  0.92755000  1
  H  H96  1  0.68795000  0.14082000  0.67115000  1
  H  H97  1  0.64108000  0.20899000  0.69090000  1
  H  H98  1  0.64401000  0.17674000  0.55328000  1
  H  H99  1  0.69089000  0.10857000  0.53354000  1
  H  H100  1  0.66683000  0.94632000  0.47743000  1
  H  H101  1  0.64179000  0.86702000  0.43639000  1
  H  H102  1  0.64523000  0.86893000  0.56124000  1
  H  H103  1  0.69175000  0.93616000  0.59045000  1
  H  H104  1  0.62054000  0.01843000  0.51192000  1
  H  H105  1  0.52819000  0.03804000  0.54123000  1
  H  H106  1  0.55949000  0.04562000  0.65895000  1
  H  H107  1  0.64358000  0.03847000  0.64290000  1
  H  H108  1  0.49820000  0.15592000  0.42830000  1
  H  H109  1  0.45201000  0.19413000  0.47557000  1
  H  H110  1  0.43554000  0.13121000  0.43058000  1
  H  H111  1  0.56739000  0.91292000  0.54681000  1
  H  H112  1  0.50441000  0.92808000  0.57614000  1
  H  H113  1  0.51421000  0.92755000  0.51868000  1
  H  H114  1  0.18795000  0.67115000  0.53033000  1
  H  H115  1  0.14108000  0.69090000  0.48191000  1
  H  H116  1  0.14401000  0.55328000  0.37654000  1
  H  H117  1  0.19089000  0.53354000  0.42497000  1
  H  H118  1  0.16683000  0.47743000  0.53111000  1
  H  H119  1  0.14179000  0.43639000  0.56937000  1
  H  H120  1  0.14523000  0.56124000  0.69231000  1
  H  H121  1  0.19175000  0.59045000  0.65429000  1
  H  H122  1  0.12054000  0.51192000  0.49349000  1
  H  H123  1  0.02819000  0.54123000  0.50319000  1
  H  H124  1  0.05949000  0.65895000  0.61333000  1
  H  H125  1  0.14358000  0.64290000  0.60443000  1
  H  H126  1  0.99820000  0.42830000  0.27238000  1
  H  H127  1  0.95201000  0.47557000  0.28144000  1
  H  H128  1  0.93554000  0.43058000  0.29937000  1
  H  H129  1  0.06739000  0.54681000  0.63389000  1
  H  H130  1  0.00441000  0.57614000  0.64806000  1
  H  H131  1  0.01421000  0.51868000  0.59113000  1
  H  H132  1  0.31205000  0.46967000  0.14082000  1
  H  H133  1  0.35892000  0.51809000  0.20899000  1
  H  H134  1  0.35599000  0.62346000  0.17674000  1
  H  H135  1  0.30911000  0.57503000  0.10857000  1
  H  H136  1  0.33317000  0.46889000  0.94632000  1
  H  H137  1  0.35821000  0.43063000  0.86702000  1
  H  H138  1  0.35477000  0.30769000  0.86893000  1
  H  H139  1  0.30825000  0.34571000  0.93616000  1
  H  H140  1  0.37946000  0.50651000  0.01843000  1
  H  H141  1  0.47181000  0.49681000  0.03804000  1
  H  H142  1  0.44051000  0.38667000  0.04562000  1
  H  H143  1  0.35642000  0.39557000  0.03847000  1
  H  H144  1  0.50180000  0.72762000  0.15592000  1
  H  H145  1  0.54799000  0.71856000  0.19413000  1
  H  H146  1  0.56446000  0.70063000  0.13121000  1
  H  H147  1  0.43261000  0.36611000  0.91292000  1
  H  H148  1  0.49559000  0.35194000  0.92808000  1
  H  H149  1  0.48579000  0.40887000  0.92755000  1
  H  H150  1  0.81205000  0.14082000  0.67115000  1
  H  H151  1  0.85892000  0.20899000  0.69090000  1
  H  H152  1  0.85599000  0.17674000  0.55328000  1
  H  H153  1  0.80911000  0.10857000  0.53354000  1
  H  H154  1  0.83317000  0.94632000  0.47743000  1
  H  H155  1  0.85821000  0.86702000  0.43639000  1
  H  H156  1  0.85477000  0.86893000  0.56124000  1
  H  H157  1  0.80825000  0.93616000  0.59045000  1
  H  H158  1  0.87946000  0.01843000  0.51192000  1
  H  H159  1  0.97181000  0.03804000  0.54123000  1
  H  H160  1  0.94051000  0.04562000  0.65895000  1
  H  H161  1  0.85642000  0.03847000  0.64290000  1
  H  H162  1  0.00180000  0.15592000  0.42830000  1
  H  H163  1  0.04799000  0.19413000  0.47557000  1
  H  H164  1  0.06446000  0.13121000  0.43058000  1
  H  H165  1  0.93261000  0.91292000  0.54681000  1
  H  H166  1  0.99559000  0.92808000  0.57614000  1
  H  H167  1  0.98579000  0.92755000  0.51868000  1
  H  H168  1  0.31205000  0.67115000  0.53033000  1
  H  H169  1  0.35892000  0.69090000  0.48191000  1
  H  H170  1  0.35599000  0.55328000  0.37654000  1
  H  H171  1  0.30911000  0.53354000  0.42497000  1
  H  H172  1  0.33317000  0.47743000  0.53111000  1
  H  H173  1  0.35821000  0.43639000  0.56937000  1
  H  H174  1  0.35477000  0.56124000  0.69231000  1
  H  H175  1  0.30825000  0.59045000  0.65429000  1
  H  H176  1  0.37946000  0.51192000  0.49349000  1
  H  H177  1  0.47181000  0.54123000  0.50319000  1
  H  H178  1  0.44051000  0.65895000  0.61333000  1
  H  H179  1  0.35642000  0.64290000  0.60443000  1
  H  H180  1  0.50180000  0.42830000  0.27238000  1
  H  H181  1  0.54799000  0.47557000  0.28144000  1
  H  H182  1  0.56446000  0.43058000  0.29937000  1
  H  H183  1  0.43261000  0.54681000  0.63389000  1
  H  H184  1  0.49559000  0.57614000  0.64806000  1
  H  H185  1  0.48579000  0.51868000  0.59113000  1
  H  H186  1  0.81205000  0.53033000  0.85918000  1
  H  H187  1  0.85892000  0.48191000  0.79101000  1
  H  H188  1  0.85599000  0.37654000  0.82326000  1
  H  H189  1  0.80911000  0.42497000  0.89143000  1
  H  H190  1  0.83317000  0.53111000  0.05368000  1
  H  H191  1  0.85821000  0.56937000  0.13298000  1
  H  H192  1  0.85477000  0.69231000  0.13107000  1
  H  H193  1  0.80825000  0.65429000  0.06384000  1
  H  H194  1  0.87946000  0.49349000  0.98157000  1
  H  H195  1  0.97181000  0.50319000  0.96196000  1
  H  H196  1  0.94051000  0.61333000  0.95438000  1
  H  H197  1  0.85642000  0.60443000  0.96153000  1
  H  H198  1  0.00180000  0.27238000  0.84408000  1
  H  H199  1  0.04799000  0.28144000  0.80587000  1
  H  H200  1  0.06446000  0.29937000  0.86879000  1
  H  H201  1  0.93261000  0.63389000  0.08708000  1
  H  H202  1  0.99559000  0.64806000  0.07192000  1
  H  H203  1  0.98579000  0.59113000  0.07245000  1
  H  H204  1  0.31205000  0.85918000  0.32885000  1
  H  H205  1  0.35892000  0.79101000  0.30910000  1
  H  H206  1  0.35599000  0.82326000  0.44672000  1
  H  H207  1  0.30911000  0.89143000  0.46646000  1
  H  H208  1  0.33317000  0.05368000  0.52257000  1
  H  H209  1  0.35821000  0.13298000  0.56361000  1
  H  H210  1  0.35477000  0.13107000  0.43876000  1
  H  H211  1  0.30825000  0.06384000  0.40955000  1
  H  H212  1  0.37946000  0.98157000  0.48808000  1
  H  H213  1  0.47181000  0.96196000  0.45877000  1
  H  H214  1  0.44051000  0.95438000  0.34105000  1
  H  H215  1  0.35642000  0.96153000  0.35710000  1
  H  H216  1  0.50180000  0.84408000  0.57170000  1
  H  H217  1  0.54799000  0.80587000  0.52443000  1
  H  H218  1  0.56446000  0.86879000  0.56942000  1
  H  H219  1  0.43261000  0.08708000  0.45319000  1
  H  H220  1  0.49559000  0.07192000  0.42386000  1
  H  H221  1  0.48579000  0.07245000  0.48132000  1
  H  H222  1  0.81205000  0.32885000  0.46967000  1
  H  H223  1  0.85892000  0.30910000  0.51809000  1
  H  H224  1  0.85599000  0.44672000  0.62346000  1
  H  H225  1  0.80911000  0.46646000  0.57503000  1
  H  H226  1  0.83317000  0.52257000  0.46889000  1
  H  H227  1  0.85821000  0.56361000  0.43063000  1
  H  H228  1  0.85477000  0.43876000  0.30769000  1
  H  H229  1  0.80825000  0.40955000  0.34571000  1
  H  H230  1  0.87946000  0.48808000  0.50651000  1
  H  H231  1  0.97181000  0.45877000  0.49681000  1
  H  H232  1  0.94051000  0.34105000  0.38667000  1
  H  H233  1  0.85642000  0.35710000  0.39557000  1
  H  H234  1  0.00180000  0.57170000  0.72762000  1
  H  H235  1  0.04799000  0.52443000  0.71856000  1
  H  H236  1  0.06446000  0.56942000  0.70063000  1
  H  H237  1  0.93261000  0.45319000  0.36611000  1
  H  H238  1  0.99559000  0.42386000  0.35194000  1
  H  H239  1  0.98579000  0.48132000  0.40887000  1
  H  H240  1  0.47054000  0.55985000  0.83903000  1
  H  H241  1  0.52299000  0.53189000  0.85477000  1
  H  H242  1  0.45681000  0.52469000  0.86922000  1
  H  H243  1  0.97022000  0.83910000  0.27929000  1
  H  H244  1  0.02306000  0.85462000  0.32257000  1
  H  H245  1  0.95707000  0.86930000  0.34475000  1
  H  H246  1  0.02333000  0.46078000  0.15120000  1
  H  H247  1  0.96873000  0.47997000  0.12858000  1
  H  H248  1  0.95829000  0.44283000  0.15721000  1
  H  H249  1  0.52273000  0.15247000  0.69336000  1
  H  H250  1  0.47171000  0.12836000  0.64764000  1
  H  H251  1  0.45590000  0.15615000  0.71240000  1
  H  H252  1  0.55610000  0.45427000  0.14609000  1
  H  H253  1  0.50364000  0.48223000  0.13035000  1
  H  H254  1  0.48992000  0.44707000  0.16054000  1
  H  H255  1  0.05616000  0.14594000  0.69150000  1
  H  H256  1  0.00332000  0.13042000  0.64822000  1
  H  H257  1  0.99017000  0.16062000  0.71368000  1
  H  H258  1  0.50481000  0.83704000  0.27870000  1
  H  H259  1  0.55584000  0.86115000  0.32443000  1
  H  H260  1  0.48901000  0.86483000  0.34347000  1
  H  H261  1  0.98306000  0.29395000  0.45167000  1
  H  H262  1  0.05276000  0.29878000  0.44931000  1
  H  H263  1  0.01384000  0.35387000  0.48260000  1
  H  H264  1  0.00184000  0.55758000  0.83725000  1
  H  H265  1  0.05643000  0.53840000  0.85988000  1
  H  H266  1  0.99139000  0.52044000  0.86588000  1
  H  H267  1  0.44972000  0.29463000  0.44719000  1
  H  H268  1  0.51946000  0.29804000  0.45412000  1
  H  H269  1  0.48117000  0.35392000  0.48227000  1
  H  H270  1  0.01965000  0.66772000  0.52693000  1
  H  H271  1  0.94996000  0.66288000  0.52928000  1
  H  H272  1  0.98073000  0.72280000  0.56021000  1
  H  H273  1  0.55256000  0.66698000  0.53174000  1
  H  H274  1  0.48282000  0.66357000  0.52481000  1
  H  H275  1  0.51427000  0.72285000  0.55988000  1
  C  C276  1  0.60080000  0.39660000  0.76070000  1
  C  C277  1  0.69410000  0.48250000  0.88210000  1
  C  C278  1  0.67910000  0.49950000  0.85200000  1
  C  C279  1  0.65110000  0.47050000  0.81110000  1
  C  C280  1  0.63790000  0.42440000  0.80040000  1
  C  C281  1  0.65280000  0.40740000  0.83050000  1
  C  C282  1  0.68090000  0.43640000  0.87130000  1
  C  C283  1  0.72430000  0.51240000  0.92690000  1
  C  C284  1  0.69730000  0.54100000  0.96810000  1
  C  C285  1  0.72350000  0.56890000  0.01200000  1
  C  C286  1  0.69640000  0.59210000  0.05790000  1
  C  C287  1  0.67040000  0.56410000  0.07340000  1
  C  C288  1  0.65020000  0.58820000  0.11960000  1
  C  C289  1  0.64170000  0.63440000  0.14650000  1
  C  C290  1  0.65530000  0.66080000  0.11960000  1
  C  C291  1  0.68230000  0.63700000  0.07860000  1
  C  C292  1  0.60920000  0.64470000  0.18440000  1
  C  C293  1  0.64100000  0.54600000  0.96770000  1
  C  C294  1  0.60970000  0.51660000  0.97430000  1
  C  C295  1  0.55250000  0.52640000  0.96820000  1
  C  C296  1  0.54020000  0.56540000  0.97170000  1
  C  C297  1  0.57130000  0.59080000  0.96200000  1
  C  C298  1  0.62130000  0.58320000  0.96350000  1
  C  C299  1  0.48590000  0.57320000  0.97280000  1
  C  C300  1  0.47710000  0.48130000  0.79260000  1
  C  C301  1  0.48220000  0.52750000  0.84220000  1
  C  C302  1  0.50010000  0.47300000  0.64500000  1
  C  C303  1  0.50500000  0.44770000  0.59860000  1
  C  C304  1  0.47500000  0.54030000  0.63060000  1
  C  C305  1  0.32260000  0.39620000  0.68640000  1
  C  C306  1  0.46730000  0.29680000  0.84380000  1
  C  C307  1  0.10080000  0.76070000  0.36410000  1
  C  C308  1  0.19410000  0.88210000  0.39960000  1
  C  C309  1  0.17910000  0.85200000  0.35250000  1
  C  C310  1  0.15110000  0.81110000  0.34060000  1
  C  C311  1  0.13790000  0.80040000  0.37600000  1
  C  C312  1  0.15280000  0.83050000  0.42310000  1
  C  C313  1  0.18090000  0.87130000  0.43490000  1
  C  C314  1  0.22430000  0.92690000  0.41450000  1
  C  C315  1  0.19730000  0.96810000  0.42710000  1
  C  C316  1  0.22350000  0.01200000  0.44310000  1
  C  C317  1  0.19640000  0.05790000  0.46580000  1
  C  C318  1  0.17040000  0.07340000  0.50930000  1
  C  C319  1  0.15020000  0.11960000  0.53140000  1
  C  C320  1  0.14170000  0.14650000  0.51210000  1
  C  C321  1  0.15530000  0.11960000  0.45880000  1
  C  C322  1  0.18230000  0.07860000  0.44160000  1
  C  C323  1  0.10920000  0.18440000  0.53970000  1
  C  C324  1  0.14100000  0.96770000  0.42170000  1
  C  C325  1  0.10970000  0.97430000  0.45770000  1
  C  C326  1  0.05250000  0.96820000  0.44180000  1
  C  C327  1  0.04020000  0.97170000  0.40630000  1
  C  C328  1  0.07130000  0.96200000  0.37120000  1
  C  C329  1  0.12130000  0.96350000  0.38030000  1
  C  C330  1  0.98590000  0.97280000  0.39960000  1
  C  C331  1  0.97710000  0.79260000  0.31130000  1
  C  C332  1  0.98220000  0.84220000  0.31470000  1
  C  C333  1  0.00010000  0.64500000  0.17200000  1
  C  C334  1  0.00500000  0.59860000  0.15090000  1
  C  C335  1  0.97500000  0.63060000  0.09030000  1
  C  C336  1  0.82260000  0.68640000  0.29020000  1
  C  C337  1  0.96730000  0.84380000  0.54700000  1
  C  C338  1  0.60080000  0.36410000  0.60340000  1
  C  C339  1  0.69410000  0.39960000  0.51750000  1
  C  C340  1  0.67910000  0.35250000  0.50050000  1
  C  C341  1  0.65110000  0.34060000  0.52950000  1
  C  C342  1  0.63790000  0.37600000  0.57560000  1
  C  C343  1  0.65280000  0.42310000  0.59260000  1
  C  C344  1  0.68090000  0.43490000  0.56360000  1
  C  C345  1  0.72430000  0.41450000  0.48760000  1
  C  C346  1  0.69730000  0.42710000  0.45900000  1
  C  C347  1  0.72350000  0.44310000  0.43110000  1
  C  C348  1  0.69640000  0.46580000  0.40790000  1
  C  C349  1  0.67040000  0.50930000  0.43590000  1
  C  C350  1  0.65020000  0.53140000  0.41180000  1
  C  C351  1  0.64170000  0.51210000  0.36560000  1
  C  C352  1  0.65530000  0.45880000  0.33920000  1
  C  C353  1  0.68230000  0.44160000  0.36300000  1
  C  C354  1  0.60920000  0.53970000  0.35530000  1
  C  C355  1  0.64100000  0.42170000  0.45400000  1
  C  C356  1  0.60970000  0.45770000  0.48340000  1
  C  C357  1  0.55250000  0.44180000  0.47360000  1
  C  C358  1  0.54020000  0.40630000  0.43460000  1
  C  C359  1  0.57130000  0.37120000  0.40920000  1
  C  C360  1  0.62130000  0.38030000  0.41680000  1
  C  C361  1  0.48590000  0.39960000  0.42680000  1
  C  C362  1  0.47710000  0.31130000  0.51870000  1
  C  C363  1  0.48220000  0.31470000  0.47250000  1
  C  C364  1  0.50010000  0.17200000  0.52700000  1
  C  C365  1  0.50500000  0.15090000  0.55230000  1
  C  C366  1  0.47500000  0.09030000  0.45970000  1
  C  C367  1  0.32260000  0.29020000  0.60380000  1
  C  C368  1  0.46730000  0.54700000  0.70320000  1
  C  C369  1  0.10080000  0.60340000  0.23930000  1
  C  C370  1  0.19410000  0.51750000  0.11790000  1
  C  C371  1  0.17910000  0.50050000  0.14800000  1
  C  C372  1  0.15110000  0.52950000  0.18890000  1
  C  C373  1  0.13790000  0.57560000  0.19960000  1
  C  C374  1  0.15280000  0.59260000  0.16950000  1
  C  C375  1  0.18090000  0.56360000  0.12870000  1
  C  C376  1  0.22430000  0.48760000  0.07310000  1
  C  C377  1  0.19730000  0.45900000  0.03190000  1
  C  C378  1  0.22350000  0.43110000  0.98800000  1
  C  C379  1  0.19640000  0.40790000  0.94210000  1
  C  C380  1  0.17040000  0.43590000  0.92660000  1
  C  C381  1  0.15020000  0.41180000  0.88040000  1
  C  C382  1  0.14170000  0.36560000  0.85350000  1
  C  C383  1  0.15530000  0.33920000  0.88040000  1
  C  C384  1  0.18230000  0.36300000  0.92140000  1
  C  C385  1  0.10920000  0.35530000  0.81560000  1
  C  C386  1  0.14100000  0.45400000  0.03230000  1
  C  C387  1  0.10970000  0.48340000  0.02570000  1
  C  C388  1  0.05250000  0.47360000  0.03180000  1
  C  C389  1  0.04020000  0.43460000  0.02830000  1
  C  C390  1  0.07130000  0.40920000  0.03800000  1
  C  C391  1  0.12130000  0.41680000  0.03650000  1
  C  C392  1  0.98590000  0.42680000  0.02720000  1
  C  C393  1  0.97710000  0.51870000  0.20740000  1
  C  C394  1  0.98220000  0.47250000  0.15780000  1
  C  C395  1  0.00010000  0.52700000  0.35500000  1
  C  C396  1  0.00500000  0.55230000  0.40140000  1
  C  C397  1  0.97500000  0.45970000  0.36940000  1
  C  C398  1  0.82260000  0.60380000  0.31360000  1
  C  C399  1  0.96730000  0.70320000  0.15620000  1
  C  C400  1  0.60080000  0.23930000  0.63590000  1
  C  C401  1  0.69410000  0.11790000  0.60040000  1
  C  C402  1  0.67910000  0.14800000  0.64750000  1
  C  C403  1  0.65110000  0.18890000  0.65940000  1
  C  C404  1  0.63790000  0.19960000  0.62400000  1
  C  C405  1  0.65280000  0.16950000  0.57690000  1
  C  C406  1  0.68090000  0.12870000  0.56510000  1
  C  C407  1  0.72430000  0.07310000  0.58550000  1
  C  C408  1  0.69730000  0.03190000  0.57290000  1
  C  C409  1  0.72350000  0.98800000  0.55690000  1
  C  C410  1  0.69640000  0.94210000  0.53420000  1
  C  C411  1  0.67040000  0.92660000  0.49070000  1
  C  C412  1  0.65020000  0.88040000  0.46860000  1
  C  C413  1  0.64170000  0.85350000  0.48790000  1
  C  C414  1  0.65530000  0.88040000  0.54120000  1
  C  C415  1  0.68230000  0.92140000  0.55840000  1
  C  C416  1  0.60920000  0.81560000  0.46030000  1
  C  C417  1  0.64100000  0.03230000  0.57830000  1
  C  C418  1  0.60970000  0.02570000  0.54230000  1
  C  C419  1  0.55250000  0.03180000  0.55820000  1
  C  C420  1  0.54020000  0.02830000  0.59370000  1
  C  C421  1  0.57130000  0.03800000  0.62880000  1
  C  C422  1  0.62130000  0.03650000  0.61970000  1
  C  C423  1  0.48590000  0.02720000  0.60040000  1
  C  C424  1  0.47710000  0.20740000  0.68870000  1
  C  C425  1  0.48220000  0.15780000  0.68530000  1
  C  C426  1  0.50010000  0.35500000  0.82800000  1
  C  C427  1  0.50500000  0.40140000  0.84910000  1
  C  C428  1  0.47500000  0.36940000  0.90970000  1
  C  C429  1  0.32260000  0.31360000  0.70980000  1
  C  C430  1  0.46730000  0.15620000  0.45300000  1
  C  C431  1  0.10080000  0.63590000  0.39660000  1
  C  C432  1  0.19410000  0.60040000  0.48250000  1
  C  C433  1  0.17910000  0.64750000  0.49950000  1
  C  C434  1  0.15110000  0.65940000  0.47050000  1
  C  C435  1  0.13790000  0.62400000  0.42440000  1
  C  C436  1  0.15280000  0.57690000  0.40740000  1
  C  C437  1  0.18090000  0.56510000  0.43640000  1
  C  C438  1  0.22430000  0.58550000  0.51240000  1
  C  C439  1  0.19730000  0.57290000  0.54100000  1
  C  C440  1  0.22350000  0.55690000  0.56890000  1
  C  C441  1  0.19640000  0.53420000  0.59210000  1
  C  C442  1  0.17040000  0.49070000  0.56410000  1
  C  C443  1  0.15020000  0.46860000  0.58820000  1
  C  C444  1  0.14170000  0.48790000  0.63440000  1
  C  C445  1  0.15530000  0.54120000  0.66080000  1
  C  C446  1  0.18230000  0.55840000  0.63700000  1
  C  C447  1  0.10920000  0.46030000  0.64470000  1
  C  C448  1  0.14100000  0.57830000  0.54600000  1
  C  C449  1  0.10970000  0.54230000  0.51660000  1
  C  C450  1  0.05250000  0.55820000  0.52640000  1
  C  C451  1  0.04020000  0.59370000  0.56540000  1
  C  C452  1  0.07130000  0.62880000  0.59080000  1
  C  C453  1  0.12130000  0.61970000  0.58320000  1
  C  C454  1  0.98590000  0.60040000  0.57320000  1
  C  C455  1  0.97710000  0.68870000  0.48130000  1
  C  C456  1  0.98220000  0.68530000  0.52750000  1
  C  C457  1  0.00010000  0.82800000  0.47300000  1
  C  C458  1  0.00500000  0.84910000  0.44770000  1
  C  C459  1  0.97500000  0.90970000  0.54030000  1
  C  C460  1  0.82260000  0.70980000  0.39620000  1
  C  C461  1  0.96730000  0.45300000  0.29680000  1
  C  C462  1  0.39920000  0.60340000  0.23930000  1
  C  C463  1  0.30590000  0.51750000  0.11790000  1
  C  C464  1  0.32090000  0.50050000  0.14800000  1
  C  C465  1  0.34890000  0.52950000  0.18890000  1
  C  C466  1  0.36210000  0.57560000  0.19960000  1
  C  C467  1  0.34720000  0.59260000  0.16950000  1
  C  C468  1  0.31910000  0.56360000  0.12870000  1
  C  C469  1  0.27570000  0.48760000  0.07310000  1
  C  C470  1  0.30270000  0.45900000  0.03190000  1
  C  C471  1  0.27650000  0.43110000  0.98800000  1
  C  C472  1  0.30360000  0.40790000  0.94210000  1
  C  C473  1  0.32960000  0.43590000  0.92660000  1
  C  C474  1  0.34980000  0.41180000  0.88040000  1
  C  C475  1  0.35830000  0.36560000  0.85350000  1
  C  C476  1  0.34470000  0.33920000  0.88040000  1
  C  C477  1  0.31770000  0.36300000  0.92140000  1
  C  C478  1  0.39080000  0.35530000  0.81560000  1
  C  C479  1  0.35900000  0.45400000  0.03230000  1
  C  C480  1  0.39030000  0.48340000  0.02570000  1
  C  C481  1  0.44750000  0.47360000  0.03180000  1
  C  C482  1  0.45980000  0.43460000  0.02830000  1
  C  C483  1  0.42870000  0.40920000  0.03800000  1
  C  C484  1  0.37870000  0.41680000  0.03650000  1
  C  C485  1  0.51410000  0.42680000  0.02720000  1
  C  C486  1  0.52290000  0.51870000  0.20740000  1
  C  C487  1  0.51780000  0.47250000  0.15780000  1
  C  C488  1  0.49990000  0.52700000  0.35500000  1
  C  C489  1  0.49500000  0.55230000  0.40140000  1
  C  C490  1  0.52500000  0.45970000  0.36940000  1
  C  C491  1  0.67740000  0.60380000  0.31360000  1
  C  C492  1  0.53270000  0.70320000  0.15620000  1
  C  C493  1  0.89920000  0.23930000  0.63590000  1
  C  C494  1  0.80590000  0.11790000  0.60040000  1
  C  C495  1  0.82090000  0.14800000  0.64750000  1
  C  C496  1  0.84890000  0.18890000  0.65940000  1
  C  C497  1  0.86210000  0.19960000  0.62400000  1
  C  C498  1  0.84720000  0.16950000  0.57690000  1
  C  C499  1  0.81910000  0.12870000  0.56510000  1
  C  C500  1  0.77570000  0.07310000  0.58550000  1
  C  C501  1  0.80270000  0.03190000  0.57290000  1
  C  C502  1  0.77650000  0.98800000  0.55690000  1
  C  C503  1  0.80360000  0.94210000  0.53420000  1
  C  C504  1  0.82960000  0.92660000  0.49070000  1
  C  C505  1  0.84980000  0.88040000  0.46860000  1
  C  C506  1  0.85830000  0.85350000  0.48790000  1
  C  C507  1  0.84470000  0.88040000  0.54120000  1
  C  C508  1  0.81770000  0.92140000  0.55840000  1
  C  C509  1  0.89080000  0.81560000  0.46030000  1
  C  C510  1  0.85900000  0.03230000  0.57830000  1
  C  C511  1  0.89030000  0.02570000  0.54230000  1
  C  C512  1  0.94750000  0.03180000  0.55820000  1
  C  C513  1  0.95980000  0.02830000  0.59370000  1
  C  C514  1  0.92870000  0.03800000  0.62880000  1
  C  C515  1  0.87870000  0.03650000  0.61970000  1
  C  C516  1  0.01410000  0.02720000  0.60040000  1
  C  C517  1  0.02290000  0.20740000  0.68870000  1
  C  C518  1  0.01780000  0.15780000  0.68530000  1
  C  C519  1  0.99990000  0.35500000  0.82800000  1
  C  C520  1  0.99500000  0.40140000  0.84910000  1
  C  C521  1  0.02500000  0.36940000  0.90970000  1
  C  C522  1  0.17740000  0.31360000  0.70980000  1
  C  C523  1  0.03270000  0.15620000  0.45300000  1
  C  C524  1  0.39920000  0.63590000  0.39660000  1
  C  C525  1  0.30590000  0.60040000  0.48250000  1
  C  C526  1  0.32090000  0.64750000  0.49950000  1
  C  C527  1  0.34890000  0.65940000  0.47050000  1
  C  C528  1  0.36210000  0.62400000  0.42440000  1
  C  C529  1  0.34720000  0.57690000  0.40740000  1
  C  C530  1  0.31910000  0.56510000  0.43640000  1
  C  C531  1  0.27570000  0.58550000  0.51240000  1
  C  C532  1  0.30270000  0.57290000  0.54100000  1
  C  C533  1  0.27650000  0.55690000  0.56890000  1
  C  C534  1  0.30360000  0.53420000  0.59210000  1
  C  C535  1  0.32960000  0.49070000  0.56410000  1
  C  C536  1  0.34980000  0.46860000  0.58820000  1
  C  C537  1  0.35830000  0.48790000  0.63440000  1
  C  C538  1  0.34470000  0.54120000  0.66080000  1
  C  C539  1  0.31770000  0.55840000  0.63700000  1
  C  C540  1  0.39080000  0.46030000  0.64470000  1
  C  C541  1  0.35900000  0.57830000  0.54600000  1
  C  C542  1  0.39030000  0.54230000  0.51660000  1
  C  C543  1  0.44750000  0.55820000  0.52640000  1
  C  C544  1  0.45980000  0.59370000  0.56540000  1
  C  C545  1  0.42870000  0.62880000  0.59080000  1
  C  C546  1  0.37870000  0.61970000  0.58320000  1
  C  C547  1  0.51410000  0.60040000  0.57320000  1
  C  C548  1  0.52290000  0.68870000  0.48130000  1
  C  C549  1  0.51780000  0.68530000  0.52750000  1
  C  C550  1  0.49990000  0.82800000  0.47300000  1
  C  C551  1  0.49500000  0.84910000  0.44770000  1
  C  C552  1  0.52500000  0.90970000  0.54030000  1
  C  C553  1  0.67740000  0.70980000  0.39620000  1
  C  C554  1  0.53270000  0.45300000  0.29680000  1
  C  C555  1  0.89920000  0.39660000  0.76070000  1
  C  C556  1  0.80590000  0.48250000  0.88210000  1
  C  C557  1  0.82090000  0.49950000  0.85200000  1
  C  C558  1  0.84890000  0.47050000  0.81110000  1
  C  C559  1  0.86210000  0.42440000  0.80040000  1
  C  C560  1  0.84720000  0.40740000  0.83050000  1
  C  C561  1  0.81910000  0.43640000  0.87130000  1
  C  C562  1  0.77570000  0.51240000  0.92690000  1
  C  C563  1  0.80270000  0.54100000  0.96810000  1
  C  C564  1  0.77650000  0.56890000  0.01200000  1
  C  C565  1  0.80360000  0.59210000  0.05790000  1
  C  C566  1  0.82960000  0.56410000  0.07340000  1
  C  C567  1  0.84980000  0.58820000  0.11960000  1
  C  C568  1  0.85830000  0.63440000  0.14650000  1
  C  C569  1  0.84470000  0.66080000  0.11960000  1
  C  C570  1  0.81770000  0.63700000  0.07860000  1
  C  C571  1  0.89080000  0.64470000  0.18440000  1
  C  C572  1  0.85900000  0.54600000  0.96770000  1
  C  C573  1  0.89030000  0.51660000  0.97430000  1
  C  C574  1  0.94750000  0.52640000  0.96820000  1
  C  C575  1  0.95980000  0.56540000  0.97170000  1
  C  C576  1  0.92870000  0.59080000  0.96200000  1
  C  C577  1  0.87870000  0.58320000  0.96350000  1
  C  C578  1  0.01410000  0.57320000  0.97280000  1
  C  C579  1  0.02290000  0.48130000  0.79260000  1
  C  C580  1  0.01780000  0.52750000  0.84220000  1
  C  C581  1  0.99990000  0.47300000  0.64500000  1
  C  C582  1  0.99500000  0.44770000  0.59860000  1
  C  C583  1  0.02500000  0.54030000  0.63060000  1
  C  C584  1  0.17740000  0.39620000  0.68640000  1
  C  C585  1  0.03270000  0.29680000  0.84380000  1
  C  C586  1  0.39920000  0.76070000  0.36410000  1
  C  C587  1  0.30590000  0.88210000  0.39960000  1
  C  C588  1  0.32090000  0.85200000  0.35250000  1
  C  C589  1  0.34890000  0.81110000  0.34060000  1
  C  C590  1  0.36210000  0.80040000  0.37600000  1
  C  C591  1  0.34720000  0.83050000  0.42310000  1
  C  C592  1  0.31910000  0.87130000  0.43490000  1
  C  C593  1  0.27570000  0.92690000  0.41450000  1
  C  C594  1  0.30270000  0.96810000  0.42710000  1
  C  C595  1  0.27650000  0.01200000  0.44310000  1
  C  C596  1  0.30360000  0.05790000  0.46580000  1
  C  C597  1  0.32960000  0.07340000  0.50930000  1
  C  C598  1  0.34980000  0.11960000  0.53140000  1
  C  C599  1  0.35830000  0.14650000  0.51210000  1
  C  C600  1  0.34470000  0.11960000  0.45880000  1
  C  C601  1  0.31770000  0.07860000  0.44160000  1
  C  C602  1  0.39080000  0.18440000  0.53970000  1
  C  C603  1  0.35900000  0.96770000  0.42170000  1
  C  C604  1  0.39030000  0.97430000  0.45770000  1
  C  C605  1  0.44750000  0.96820000  0.44180000  1
  C  C606  1  0.45980000  0.97170000  0.40630000  1
  C  C607  1  0.42870000  0.96200000  0.37120000  1
  C  C608  1  0.37870000  0.96350000  0.38030000  1
  C  C609  1  0.51410000  0.97280000  0.39960000  1
  C  C610  1  0.52290000  0.79260000  0.31130000  1
  C  C611  1  0.51780000  0.84220000  0.31470000  1
  C  C612  1  0.49990000  0.64500000  0.17200000  1
  C  C613  1  0.49500000  0.59860000  0.15090000  1
  C  C614  1  0.52500000  0.63060000  0.09030000  1
  C  C615  1  0.67740000  0.68640000  0.29020000  1
  C  C616  1  0.53270000  0.84380000  0.54700000  1
  C  C617  1  0.89920000  0.36410000  0.60340000  1
  C  C618  1  0.80590000  0.39960000  0.51750000  1
  C  C619  1  0.82090000  0.35250000  0.50050000  1
  C  C620  1  0.84890000  0.34060000  0.52950000  1
  C  C621  1  0.86210000  0.37600000  0.57560000  1
  C  C622  1  0.84720000  0.42310000  0.59260000  1
  C  C623  1  0.81910000  0.43490000  0.56360000  1
  C  C624  1  0.77570000  0.41450000  0.48760000  1
  C  C625  1  0.80270000  0.42710000  0.45900000  1
  C  C626  1  0.77650000  0.44310000  0.43110000  1
  C  C627  1  0.80360000  0.46580000  0.40790000  1
  C  C628  1  0.82960000  0.50930000  0.43590000  1
  C  C629  1  0.84980000  0.53140000  0.41180000  1
  C  C630  1  0.85830000  0.51210000  0.36560000  1
  C  C631  1  0.84470000  0.45880000  0.33920000  1
  C  C632  1  0.81770000  0.44160000  0.36300000  1
  C  C633  1  0.89080000  0.53970000  0.35530000  1
  C  C634  1  0.85900000  0.42170000  0.45400000  1
  C  C635  1  0.89030000  0.45770000  0.48340000  1
  C  C636  1  0.94750000  0.44180000  0.47360000  1
  C  C637  1  0.95980000  0.40630000  0.43460000  1
  C  C638  1  0.92870000  0.37120000  0.40920000  1
  C  C639  1  0.87870000  0.38030000  0.41680000  1
  C  C640  1  0.01410000  0.39960000  0.42680000  1
  C  C641  1  0.02290000  0.31130000  0.51870000  1
  C  C642  1  0.01780000  0.31470000  0.47250000  1
  C  C643  1  0.99990000  0.17200000  0.52700000  1
  C  C644  1  0.99500000  0.15090000  0.55230000  1
  C  C645  1  0.02500000  0.09030000  0.45970000  1
  C  C646  1  0.17740000  0.29020000  0.60380000  1
  C  C647  1  0.03270000  0.54700000  0.70320000  1
  N  N648  1  0.48870000  0.51450000  0.65390000  1
  N  N649  1  0.98870000  0.65390000  0.13940000  1
  N  N650  1  0.48870000  0.13940000  0.48550000  1
  N  N651  1  0.98870000  0.48550000  0.34610000  1
  N  N652  1  0.48870000  0.34610000  0.86060000  1
  N  N653  1  0.98870000  0.86060000  0.51450000  1
  N  N654  1  0.51130000  0.48550000  0.34610000  1
  N  N655  1  0.01130000  0.34610000  0.86060000  1
  N  N656  1  0.51130000  0.86060000  0.51450000  1
  N  N657  1  0.01130000  0.51450000  0.65390000  1
  N  N658  1  0.51130000  0.65390000  0.13940000  1
  N  N659  1  0.01130000  0.13940000  0.48550000  1
  O  O660  1  0.58590000  0.41630000  0.73720000  1
  O  O661  1  0.58710000  0.35560000  0.75420000  1
  O  O662  1  0.50720000  0.46680000  0.76180000  1
  O  O663  1  0.43510000  0.45230000  0.79060000  1
  O  O664  1  0.49430000  0.37240000  0.72910000  1
  O  O665  1  0.51350000  0.46130000  0.67760000  1
  O  O666  1  0.44190000  0.41610000  0.69690000  1
  O  O667  1  0.59750000  0.62330000  0.20350000  1
  O  O668  1  0.46880000  0.60370000  0.96950000  1
  O  O669  1  0.45460000  0.54760000  0.97920000  1
  O  O670  1  0.33540000  0.36800000  0.64400000  1
  O  O671  1  0.35020000  0.43100000  0.71340000  1
  O  O672  1  0.61590000  0.69370000  0.21750000  1
  O  O673  1  0.55700000  0.33333333  0.66666667  1
  O  O674  1  0.40480000  0.33333333  0.66666667  1
  O  O675  1  0.08590000  0.73720000  0.32090000  1
  O  O676  1  0.08710000  0.75420000  0.39860000  1
  O  O677  1  0.00720000  0.76180000  0.29500000  1
  O  O678  1  0.93510000  0.79060000  0.33830000  1
  O  O679  1  0.99430000  0.72910000  0.35670000  1
  O  O680  1  0.01350000  0.67760000  0.21630000  1
  O  O681  1  0.94190000  0.69690000  0.28080000  1
  O  O682  1  0.09750000  0.20350000  0.58020000  1
  O  O683  1  0.96880000  0.96950000  0.36580000  1
  O  O684  1  0.95460000  0.97920000  0.43160000  1
  O  O685  1  0.83540000  0.64400000  0.27600000  1
  O  O686  1  0.85020000  0.71340000  0.28240000  1
  O  O687  1  0.11590000  0.21750000  0.52380000  1
  O  O688  1  0.05700000  0.66666667  0.33333333  1
  O  O689  1  0.90480000  0.66666667  0.33333333  1
  O  O690  1  0.58590000  0.32090000  0.58370000  1
  O  O691  1  0.58710000  0.39860000  0.64440000  1
  O  O692  1  0.50720000  0.29500000  0.53320000  1
  O  O693  1  0.43510000  0.33830000  0.54770000  1
  O  O694  1  0.49430000  0.35670000  0.62760000  1
  O  O695  1  0.51350000  0.21630000  0.53870000  1
  O  O696  1  0.44190000  0.28080000  0.58390000  1
  O  O697  1  0.59750000  0.58020000  0.37670000  1
  O  O698  1  0.46880000  0.36580000  0.39630000  1
  O  O699  1  0.45460000  0.43160000  0.45240000  1
  O  O700  1  0.33540000  0.27600000  0.63200000  1
  O  O701  1  0.35020000  0.28240000  0.56900000  1
  O  O702  1  0.61590000  0.52380000  0.30630000  1
  O  O703  1  0.08590000  0.58370000  0.26280000  1
  O  O704  1  0.08710000  0.64440000  0.24580000  1
  O  O705  1  0.00720000  0.53320000  0.23820000  1
  O  O706  1  0.93510000  0.54770000  0.20940000  1
  O  O707  1  0.99430000  0.62760000  0.27090000  1
  O  O708  1  0.01350000  0.53870000  0.32240000  1
  O  O709  1  0.94190000  0.58390000  0.30310000  1
  O  O710  1  0.09750000  0.37670000  0.79650000  1
  O  O711  1  0.96880000  0.39630000  0.03050000  1
  O  O712  1  0.95460000  0.45240000  0.02080000  1
  O  O713  1  0.83540000  0.63200000  0.35600000  1
  O  O714  1  0.85020000  0.56900000  0.28660000  1
  O  O715  1  0.11590000  0.30630000  0.78250000  1
  O  O716  1  0.58590000  0.26280000  0.67910000  1
  O  O717  1  0.58710000  0.24580000  0.60140000  1
  O  O718  1  0.50720000  0.23820000  0.70500000  1
  O  O719  1  0.43510000  0.20940000  0.66170000  1
  O  O720  1  0.49430000  0.27090000  0.64330000  1
  O  O721  1  0.51350000  0.32240000  0.78370000  1
  O  O722  1  0.44190000  0.30310000  0.71920000  1
  O  O723  1  0.59750000  0.79650000  0.41980000  1
  O  O724  1  0.46880000  0.03050000  0.63420000  1
  O  O725  1  0.45460000  0.02080000  0.56840000  1
  O  O726  1  0.33540000  0.35600000  0.72400000  1
  O  O727  1  0.35020000  0.28660000  0.71760000  1
  O  O728  1  0.61590000  0.78250000  0.47620000  1
  O  O729  1  0.08590000  0.67910000  0.41630000  1
  O  O730  1  0.08710000  0.60140000  0.35560000  1
  O  O731  1  0.00720000  0.70500000  0.46680000  1
  O  O732  1  0.93510000  0.66170000  0.45230000  1
  O  O733  1  0.99430000  0.64330000  0.37240000  1
  O  O734  1  0.01350000  0.78370000  0.46130000  1
  O  O735  1  0.94190000  0.71920000  0.41610000  1
  O  O736  1  0.09750000  0.41980000  0.62330000  1
  O  O737  1  0.96880000  0.63420000  0.60370000  1
  O  O738  1  0.95460000  0.56840000  0.54760000  1
  O  O739  1  0.83540000  0.72400000  0.36800000  1
  O  O740  1  0.85020000  0.71760000  0.43100000  1
  O  O741  1  0.11590000  0.47620000  0.69370000  1
  O  O742  1  0.41410000  0.58370000  0.26280000  1
  O  O743  1  0.41290000  0.64440000  0.24580000  1
  O  O744  1  0.49280000  0.53320000  0.23820000  1
  O  O745  1  0.56490000  0.54770000  0.20940000  1
  O  O746  1  0.50570000  0.62760000  0.27090000  1
  O  O747  1  0.48650000  0.53870000  0.32240000  1
  O  O748  1  0.55810000  0.58390000  0.30310000  1
  O  O749  1  0.40250000  0.37670000  0.79650000  1
  O  O750  1  0.53120000  0.39630000  0.03050000  1
  O  O751  1  0.54540000  0.45240000  0.02080000  1
  O  O752  1  0.66460000  0.63200000  0.35600000  1
  O  O753  1  0.64980000  0.56900000  0.28660000  1
  O  O754  1  0.38410000  0.30630000  0.78250000  1
  O  O755  1  0.44300000  0.66666667  0.33333333  1
  O  O756  1  0.59520000  0.66666667  0.33333333  1
  O  O757  1  0.91410000  0.26280000  0.67910000  1
  O  O758  1  0.91290000  0.24580000  0.60140000  1
  O  O759  1  0.99280000  0.23820000  0.70500000  1
  O  O760  1  0.06490000  0.20940000  0.66170000  1
  O  O761  1  0.00570000  0.27090000  0.64330000  1
  O  O762  1  0.98650000  0.32240000  0.78370000  1
  O  O763  1  0.05810000  0.30310000  0.71920000  1
  O  O764  1  0.90250000  0.79650000  0.41980000  1
  O  O765  1  0.03120000  0.03050000  0.63420000  1
  O  O766  1  0.04540000  0.02080000  0.56840000  1
  O  O767  1  0.16460000  0.35600000  0.72400000  1
  O  O768  1  0.14980000  0.28660000  0.71760000  1
  O  O769  1  0.88410000  0.78250000  0.47620000  1
  O  O770  1  0.94300000  0.33333333  0.66666667  1
  O  O771  1  0.09520000  0.33333333  0.66666667  1
  O  O772  1  0.41410000  0.67910000  0.41630000  1
  O  O773  1  0.41290000  0.60140000  0.35560000  1
  O  O774  1  0.49280000  0.70500000  0.46680000  1
  O  O775  1  0.56490000  0.66170000  0.45230000  1
  O  O776  1  0.50570000  0.64330000  0.37240000  1
  O  O777  1  0.48650000  0.78370000  0.46130000  1
  O  O778  1  0.55810000  0.71920000  0.41610000  1
  O  O779  1  0.40250000  0.41980000  0.62330000  1
  O  O780  1  0.53120000  0.63420000  0.60370000  1
  O  O781  1  0.54540000  0.56840000  0.54760000  1
  O  O782  1  0.66460000  0.72400000  0.36800000  1
  O  O783  1  0.64980000  0.71760000  0.43100000  1
  O  O784  1  0.41970000  0.50460000  0.69670000  1
  O  O785  1  0.38410000  0.47620000  0.69370000  1
  O  O786  1  0.91410000  0.41630000  0.73720000  1
  O  O787  1  0.91290000  0.35560000  0.75420000  1
  O  O788  1  0.99280000  0.46680000  0.76180000  1
  O  O789  1  0.06490000  0.45230000  0.79060000  1
  O  O790  1  0.00570000  0.37240000  0.72910000  1
  O  O791  1  0.98650000  0.46130000  0.67760000  1
  O  O792  1  0.05810000  0.41610000  0.69690000  1
  O  O793  1  0.90250000  0.62330000  0.20350000  1
  O  O794  1  0.03120000  0.60370000  0.96950000  1
  O  O795  1  0.04540000  0.54760000  0.97920000  1
  O  O796  1  0.16460000  0.36800000  0.64400000  1
  O  O797  1  0.14980000  0.43100000  0.71340000  1
  O  O798  1  0.88410000  0.69370000  0.21750000  1
  O  O799  1  0.41410000  0.73720000  0.32090000  1
  O  O800  1  0.41290000  0.75420000  0.39860000  1
  O  O801  1  0.49280000  0.76180000  0.29500000  1
  O  O802  1  0.56490000  0.79060000  0.33830000  1
  O  O803  1  0.50570000  0.72910000  0.35670000  1
  O  O804  1  0.48650000  0.67760000  0.21630000  1
  O  O805  1  0.55810000  0.69690000  0.28080000  1
  O  O806  1  0.40250000  0.20350000  0.58020000  1
  O  O807  1  0.53120000  0.96950000  0.36580000  1
  O  O808  1  0.54540000  0.97920000  0.43160000  1
  O  O809  1  0.66460000  0.64400000  0.27600000  1
  O  O810  1  0.64980000  0.71340000  0.28240000  1
  O  O811  1  0.38410000  0.21750000  0.52380000  1
  O  O812  1  0.91410000  0.32090000  0.58370000  1
  O  O813  1  0.91290000  0.39860000  0.64440000  1
  O  O814  1  0.99280000  0.29500000  0.53320000  1
  O  O815  1  0.06490000  0.33830000  0.54770000  1
  O  O816  1  0.00570000  0.35670000  0.62760000  1
  O  O817  1  0.98650000  0.21630000  0.53870000  1
  O  O818  1  0.05810000  0.28080000  0.58390000  1
  O  O819  1  0.90250000  0.58020000  0.37670000  1
  O  O820  1  0.03120000  0.36580000  0.39630000  1
  O  O821  1  0.04540000  0.43160000  0.45240000  1
  O  O822  1  0.16460000  0.27600000  0.63200000  1
  O  O823  1  0.14980000  0.28240000  0.56900000  1
  O  O824  1  0.88410000  0.52380000  0.30630000  1
