# generated using pymatgen
data_Zr24H292(C131O43)3
_symmetry_space_group_name_H-M   'P 1'
_cell_length_a   26.86900000
_cell_length_b   26.86900000
_cell_length_c   26.86900000
_cell_angle_alpha   90.00000000
_cell_angle_beta   90.00000000
_cell_angle_gamma   90.00000000
_symmetry_Int_Tables_number   1
_chemical_formula_structural   Zr24H292(C131O43)3
_chemical_formula_sum   'Zr24 H292 C393 O129'
_cell_volume   19397.89079291
_cell_formula_units_Z   1
loop_
 _symmetry_equiv_pos_site_id
 _symmetry_equiv_pos_as_xyz
  1  'x, y, z'
loop_
 _atom_site_type_symbol
 _atom_site_label
 _atom_site_symmetry_multiplicity
 _atom_site_fract_x
 _atom_site_fract_y
 _atom_site_fract_z
 _atom_site_occupancy
  Zr  Zr0  1  0.50000000  0.09204000  0.50000000  1
  Zr  Zr1  1  0.50000000  0.59204000  0.00000000  1
  Zr  Zr2  1  0.00000000  0.09204000  0.00000000  1
  Zr  Zr3  1  0.00000000  0.59204000  0.50000000  1
  Zr  Zr4  1  0.50000000  0.90796000  0.50000000  1
  Zr  Zr5  1  0.50000000  0.40796000  0.00000000  1
  Zr  Zr6  1  0.00000000  0.90796000  0.00000000  1
  Zr  Zr7  1  0.00000000  0.40796000  0.50000000  1
  Zr  Zr8  1  0.50000000  0.50000000  0.09204000  1
  Zr  Zr9  1  0.50000000  0.00000000  0.59204000  1
  Zr  Zr10  1  0.00000000  0.50000000  0.59204000  1
  Zr  Zr11  1  0.00000000  0.00000000  0.09204000  1
  Zr  Zr12  1  0.50000000  0.50000000  0.90796000  1
  Zr  Zr13  1  0.50000000  0.00000000  0.40796000  1
  Zr  Zr14  1  0.00000000  0.50000000  0.40796000  1
  Zr  Zr15  1  0.00000000  0.00000000  0.90796000  1
  Zr  Zr16  1  0.09204000  0.50000000  0.50000000  1
  Zr  Zr17  1  0.09204000  0.00000000  0.00000000  1
  Zr  Zr18  1  0.59204000  0.50000000  0.00000000  1
  Zr  Zr19  1  0.59204000  0.00000000  0.50000000  1
  Zr  Zr20  1  0.90796000  0.50000000  0.50000000  1
  Zr  Zr21  1  0.90796000  0.00000000  0.00000000  1
  Zr  Zr22  1  0.40796000  0.50000000  0.00000000  1
  Zr  Zr23  1  0.40796000  0.00000000  0.50000000  1
  H  H24  1  0.72579000  0.90782000  0.42327000  1
  H  H25  1  0.76593000  0.91361000  0.47945000  1
  H  H26  1  0.70162000  0.93938000  0.48002000  1
  H  H27  1  0.80371000  0.57308000  0.55762000  1
  H  H28  1  0.76357000  0.56728000  0.50145000  1
  H  H29  1  0.73939000  0.59884000  0.55819000  1
  H  H30  1  0.60549000  0.78466000  0.52516000  1
  H  H31  1  0.67299000  0.71873000  0.52511000  1
  H  H32  1  0.78127000  0.82701000  0.47489000  1
  H  H33  1  0.82701000  0.78127000  0.47489000  1
  H  H34  1  0.89451000  0.71534000  0.47484000  1
  H  H35  1  0.71873000  0.67299000  0.52511000  1
  H  H36  1  0.57401000  0.78739000  0.41410000  1
  H  H37  1  0.53378000  0.73138000  0.40743000  1
  H  H38  1  0.50947000  0.78790000  0.43928000  1
  H  H39  1  0.45561000  0.69360000  0.06689000  1
  H  H40  1  0.49584000  0.74961000  0.07356000  1
  H  H41  1  0.43129000  0.75012000  0.09874000  1
  H  H42  1  0.47489000  0.82701000  0.21873000  1
  H  H43  1  0.47484000  0.89451000  0.28466000  1
  H  H44  1  0.52511000  0.71873000  0.32701000  1
  H  H45  1  0.52511000  0.67299000  0.28127000  1
  H  H46  1  0.52516000  0.60549000  0.21534000  1
  H  H47  1  0.47489000  0.78127000  0.17299000  1
  H  H48  1  0.55300000  0.92934000  0.69472000  1
  H  H49  1  0.56242000  0.90088000  0.75719000  1
  H  H50  1  0.50184000  0.93058000  0.74143000  1
  H  H51  1  0.48425000  0.56035000  0.79496000  1
  H  H52  1  0.47483000  0.58880000  0.73250000  1
  H  H53  1  0.42367000  0.59005000  0.77920000  1
  H  H54  1  0.52511000  0.82701000  0.78127000  1
  H  H55  1  0.47489000  0.71873000  0.67299000  1
  H  H56  1  0.47484000  0.78466000  0.60549000  1
  H  H57  1  0.47489000  0.67299000  0.71873000  1
  H  H58  1  0.52511000  0.78127000  0.82701000  1
  H  H59  1  0.52516000  0.71534000  0.89451000  1
  H  H60  1  0.47483000  0.23250000  0.08880000  1
  H  H61  1  0.48425000  0.29496000  0.06035000  1
  H  H62  1  0.42367000  0.27920000  0.09005000  1
  H  H63  1  0.56242000  0.25719000  0.40088000  1
  H  H64  1  0.55300000  0.19472000  0.42934000  1
  H  H65  1  0.50184000  0.24143000  0.43058000  1
  H  H66  1  0.52511000  0.32701000  0.28127000  1
  H  H67  1  0.52516000  0.39451000  0.21534000  1
  H  H68  1  0.47489000  0.21873000  0.17299000  1
  H  H69  1  0.47489000  0.17299000  0.21873000  1
  H  H70  1  0.47484000  0.10549000  0.28466000  1
  H  H71  1  0.52511000  0.28127000  0.32701000  1
  H  H72  1  0.56279000  0.19563000  0.46828000  1
  H  H73  1  0.59638000  0.23831000  0.42526000  1
  H  H74  1  0.58002000  0.25940000  0.48920000  1
  H  H75  1  0.93692000  0.27608000  0.50343000  1
  H  H76  1  0.90333000  0.23341000  0.54645000  1
  H  H77  1  0.92056000  0.29717000  0.56737000  1
  H  H78  1  0.67299000  0.28127000  0.47489000  1
  H  H79  1  0.78127000  0.17299000  0.52511000  1
  H  H80  1  0.71534000  0.10549000  0.52516000  1
  H  H81  1  0.82701000  0.21873000  0.52511000  1
  H  H82  1  0.71873000  0.32701000  0.47489000  1
  H  H83  1  0.78466000  0.39451000  0.47484000  1
  H  H84  1  0.50416000  0.24961000  0.57356000  1
  H  H85  1  0.54439000  0.19360000  0.56689000  1
  H  H86  1  0.56871000  0.25012000  0.59874000  1
  H  H87  1  0.46622000  0.23138000  0.90743000  1
  H  H88  1  0.42599000  0.28739000  0.91410000  1
  H  H89  1  0.49053000  0.28790000  0.93928000  1
  H  H90  1  0.47489000  0.17299000  0.78127000  1
  H  H91  1  0.47484000  0.10549000  0.71534000  1
  H  H92  1  0.52511000  0.28127000  0.67299000  1
  H  H93  1  0.52511000  0.32701000  0.71873000  1
  H  H94  1  0.52516000  0.39451000  0.78466000  1
  H  H95  1  0.47489000  0.21873000  0.82701000  1
  H  H96  1  0.98425000  0.06035000  0.79496000  1
  H  H97  1  0.97483000  0.08880000  0.73250000  1
  H  H98  1  0.92367000  0.09005000  0.77920000  1
  H  H99  1  0.05300000  0.42934000  0.69472000  1
  H  H100  1  0.06242000  0.40088000  0.75719000  1
  H  H101  1  0.00184000  0.43058000  0.74143000  1
  H  H102  1  0.97489000  0.21873000  0.67299000  1
  H  H103  1  0.97484000  0.28466000  0.60549000  1
  H  H104  1  0.97489000  0.17299000  0.71873000  1
  H  H105  1  0.02511000  0.32701000  0.78127000  1
  H  H106  1  0.02511000  0.28127000  0.82701000  1
  H  H107  1  0.02516000  0.21534000  0.89451000  1
  H  H108  1  0.92599000  0.41410000  0.28739000  1
  H  H109  1  0.96622000  0.40743000  0.23138000  1
  H  H110  1  0.99053000  0.43928000  0.28790000  1
  H  H111  1  0.04439000  0.06689000  0.19360000  1
  H  H112  1  0.00416000  0.07356000  0.24961000  1
  H  H113  1  0.06871000  0.09874000  0.25012000  1
  H  H114  1  0.97489000  0.32701000  0.21873000  1
  H  H115  1  0.97489000  0.28127000  0.17299000  1
  H  H116  1  0.97484000  0.21534000  0.10549000  1
  H  H117  1  0.02511000  0.21873000  0.32701000  1
  H  H118  1  0.02516000  0.28466000  0.39451000  1
  H  H119  1  0.02511000  0.17299000  0.28127000  1
  H  H120  1  0.95561000  0.69360000  0.56689000  1
  H  H121  1  0.99584000  0.74961000  0.57356000  1
  H  H122  1  0.93129000  0.75012000  0.59874000  1
  H  H123  1  0.07401000  0.78739000  0.91410000  1
  H  H124  1  0.03378000  0.73138000  0.90743000  1
  H  H125  1  0.00947000  0.78790000  0.93928000  1
  H  H126  1  0.97489000  0.82701000  0.71873000  1
  H  H127  1  0.97484000  0.89451000  0.78466000  1
  H  H128  1  0.97489000  0.78127000  0.67299000  1
  H  H129  1  0.02511000  0.71873000  0.82701000  1
  H  H130  1  0.02511000  0.67299000  0.78127000  1
  H  H131  1  0.02516000  0.60549000  0.71534000  1
  H  H132  1  0.97483000  0.73250000  0.08880000  1
  H  H133  1  0.98425000  0.79496000  0.06035000  1
  H  H134  1  0.92367000  0.77920000  0.09005000  1
  H  H135  1  0.06242000  0.75719000  0.40088000  1
  H  H136  1  0.05300000  0.69472000  0.42934000  1
  H  H137  1  0.00184000  0.74143000  0.43058000  1
  H  H138  1  0.97489000  0.71873000  0.17299000  1
  H  H139  1  0.97489000  0.67299000  0.21873000  1
  H  H140  1  0.97484000  0.60549000  0.28466000  1
  H  H141  1  0.02511000  0.82701000  0.28127000  1
  H  H142  1  0.02516000  0.89451000  0.21534000  1
  H  H143  1  0.02511000  0.78127000  0.32701000  1
  H  H144  1  0.22579000  0.40782000  0.42327000  1
  H  H145  1  0.26593000  0.41361000  0.47945000  1
  H  H146  1  0.20162000  0.43938000  0.48002000  1
  H  H147  1  0.30371000  0.07308000  0.55762000  1
  H  H148  1  0.26357000  0.06728000  0.50145000  1
  H  H149  1  0.23939000  0.09884000  0.55819000  1
  H  H150  1  0.06279000  0.19563000  0.96828000  1
  H  H151  1  0.09638000  0.23831000  0.92526000  1
  H  H152  1  0.08002000  0.25940000  0.98920000  1
  H  H153  1  0.43692000  0.27608000  0.00343000  1
  H  H154  1  0.40333000  0.23341000  0.04645000  1
  H  H155  1  0.42056000  0.29717000  0.06737000  1
  H  H156  1  0.20764000  0.48688000  0.56036000  1
  H  H157  1  0.21750000  0.42433000  0.58848000  1
  H  H158  1  0.26819000  0.47153000  0.59035000  1
  H  H159  1  0.25528000  0.50250000  0.92902000  1
  H  H160  1  0.24542000  0.56505000  0.90090000  1
  H  H161  1  0.30597000  0.54970000  0.93089000  1
  H  H162  1  0.08962000  0.73210000  0.97312000  1
  H  H163  1  0.08924000  0.78094000  0.92397000  1
  H  H164  1  0.06034000  0.79363000  0.98565000  1
  H  H165  1  0.42978000  0.74316000  0.00215000  1
  H  H166  1  0.43016000  0.69432000  0.05129000  1
  H  H167  1  0.40087000  0.75585000  0.06382000  1
  H  H168  1  0.21902000  0.82801000  0.47472000  1
  H  H169  1  0.06279000  0.69563000  0.46828000  1
  H  H170  1  0.09638000  0.73831000  0.42526000  1
  H  H171  1  0.08002000  0.75940000  0.48920000  1
  H  H172  1  0.43692000  0.77608000  0.50343000  1
  H  H173  1  0.40333000  0.73341000  0.54645000  1
  H  H174  1  0.42056000  0.79717000  0.56737000  1
  H  H175  1  0.56279000  0.69563000  0.96828000  1
  H  H176  1  0.59638000  0.73831000  0.92526000  1
  H  H177  1  0.58002000  0.75940000  0.98920000  1
  H  H178  1  0.93692000  0.77608000  0.00343000  1
  H  H179  1  0.90333000  0.73341000  0.04645000  1
  H  H180  1  0.92056000  0.79717000  0.06737000  1
  H  H181  1  0.58962000  0.23210000  0.97312000  1
  H  H182  1  0.58924000  0.28094000  0.92397000  1
  H  H183  1  0.56034000  0.29363000  0.98565000  1
  H  H184  1  0.92978000  0.24316000  0.00215000  1
  H  H185  1  0.93016000  0.19432000  0.05129000  1
  H  H186  1  0.90087000  0.25585000  0.06382000  1
  H  H187  1  0.58924000  0.42397000  0.78094000  1
  H  H188  1  0.58962000  0.47312000  0.73210000  1
  H  H189  1  0.56034000  0.48565000  0.79363000  1
  H  H190  1  0.08924000  0.42397000  0.28094000  1
  H  H191  1  0.08962000  0.47312000  0.23210000  1
  H  H192  1  0.06034000  0.48565000  0.29363000  1
  H  H193  1  0.43016000  0.55129000  0.19432000  1
  H  H194  1  0.42978000  0.50215000  0.24316000  1
  H  H195  1  0.40087000  0.56382000  0.25585000  1
  H  H196  1  0.93016000  0.55129000  0.69432000  1
  H  H197  1  0.92978000  0.50215000  0.74316000  1
  H  H198  1  0.90087000  0.56382000  0.75585000  1
  H  H199  1  0.57022000  0.50215000  0.24316000  1
  H  H200  1  0.56984000  0.55129000  0.19432000  1
  H  H201  1  0.59913000  0.56382000  0.25585000  1
  H  H202  1  0.91038000  0.47312000  0.23210000  1
  H  H203  1  0.91076000  0.42397000  0.28094000  1
  H  H204  1  0.93966000  0.48565000  0.29363000  1
  H  H205  1  0.67299000  0.78127000  0.97489000  1
  H  H206  1  0.17299000  0.28127000  0.97489000  1
  H  H207  1  0.17299000  0.78127000  0.47489000  1
  H  H208  1  0.32701000  0.78127000  0.02511000  1
  H  H209  1  0.82701000  0.28127000  0.02511000  1
  H  H210  1  0.17299000  0.21873000  0.52511000  1
  H  H211  1  0.10549000  0.28466000  0.52516000  1
  H  H212  1  0.28127000  0.47489000  0.67299000  1
  H  H213  1  0.78127000  0.47489000  0.17299000  1
  H  H214  1  0.71534000  0.47484000  0.10549000  1
  H  H215  1  0.71873000  0.97489000  0.82701000  1
  H  H216  1  0.73934000  0.94097000  0.90890000  1
  H  H217  1  0.79353000  0.97607000  0.94400000  1
  H  H218  1  0.21873000  0.97489000  0.32701000  1
  H  H219  1  0.23934000  0.94097000  0.40890000  1
  H  H220  1  0.29353000  0.97607000  0.44400000  1
  H  H221  1  0.28127000  0.52511000  0.32701000  1
  H  H222  1  0.21534000  0.52516000  0.39451000  1
  H  H223  1  0.78127000  0.52511000  0.82701000  1
  H  H224  1  0.71534000  0.52516000  0.89451000  1
  H  H225  1  0.71873000  0.02511000  0.17299000  1
  H  H226  1  0.79353000  0.02393000  0.05600000  1
  H  H227  1  0.73934000  0.05903000  0.09110000  1
  H  H228  1  0.21873000  0.02511000  0.67299000  1
  H  H229  1  0.29353000  0.02393000  0.55600000  1
  H  H230  1  0.23934000  0.05903000  0.59110000  1
  H  H231  1  0.28127000  0.67299000  0.52511000  1
  H  H232  1  0.21534000  0.60549000  0.52516000  1
  H  H233  1  0.28127000  0.17299000  0.02511000  1
  H  H234  1  0.21534000  0.10549000  0.02516000  1
  H  H235  1  0.78127000  0.67299000  0.02511000  1
  H  H236  1  0.71534000  0.60549000  0.02516000  1
  H  H237  1  0.28127000  0.32701000  0.47489000  1
  H  H238  1  0.71873000  0.17299000  0.97489000  1
  H  H239  1  0.78466000  0.10549000  0.97484000  1
  H  H240  1  0.21873000  0.67299000  0.97489000  1
  H  H241  1  0.28466000  0.60549000  0.97484000  1
  H  H242  1  0.67299000  0.47489000  0.71873000  1
  H  H243  1  0.17299000  0.47489000  0.21873000  1
  H  H244  1  0.32701000  0.97489000  0.78127000  1
  H  H245  1  0.42672000  0.93254000  0.70759000  1
  H  H246  1  0.42619000  0.98450000  0.75955000  1
  H  H247  1  0.82701000  0.97489000  0.28127000  1
  H  H248  1  0.92672000  0.93254000  0.20759000  1
  H  H249  1  0.92619000  0.98450000  0.25955000  1
  H  H250  1  0.32701000  0.02511000  0.21873000  1
  H  H251  1  0.42619000  0.01550000  0.24045000  1
  H  H252  1  0.42672000  0.06746000  0.29241000  1
  H  H253  1  0.82701000  0.02511000  0.71873000  1
  H  H254  1  0.92619000  0.01550000  0.74045000  1
  H  H255  1  0.92672000  0.06746000  0.79241000  1
  H  H256  1  0.67299000  0.52511000  0.28127000  1
  H  H257  1  0.17299000  0.52511000  0.78127000  1
  H  H258  1  0.10549000  0.52516000  0.71534000  1
  H  H259  1  0.32701000  0.71873000  0.52511000  1
  H  H260  1  0.32701000  0.21873000  0.02511000  1
  H  H261  1  0.82701000  0.71873000  0.02511000  1
  H  H262  1  0.67299000  0.21873000  0.97489000  1
  H  H263  1  0.17299000  0.71873000  0.97489000  1
  H  H264  1  0.32701000  0.28127000  0.47489000  1
  H  H265  1  0.39451000  0.21534000  0.47484000  1
  H  H266  1  0.71873000  0.52511000  0.32701000  1
  H  H267  1  0.78466000  0.52516000  0.39451000  1
  H  H268  1  0.21873000  0.52511000  0.82701000  1
  H  H269  1  0.28127000  0.02511000  0.17299000  1
  H  H270  1  0.20647000  0.02393000  0.05600000  1
  H  H271  1  0.26066000  0.05903000  0.09110000  1
  H  H272  1  0.78127000  0.02511000  0.67299000  1
  H  H273  1  0.70647000  0.02393000  0.55600000  1
  H  H274  1  0.76066000  0.05903000  0.59110000  1
  H  H275  1  0.71873000  0.47489000  0.67299000  1
  H  H276  1  0.78466000  0.47484000  0.60549000  1
  H  H277  1  0.21873000  0.47489000  0.17299000  1
  H  H278  1  0.28466000  0.47484000  0.10549000  1
  H  H279  1  0.28127000  0.97489000  0.82701000  1
  H  H280  1  0.26066000  0.94097000  0.90890000  1
  H  H281  1  0.20647000  0.97607000  0.94400000  1
  H  H282  1  0.78127000  0.97489000  0.32701000  1
  H  H283  1  0.76066000  0.94097000  0.40890000  1
  H  H284  1  0.70647000  0.97607000  0.44400000  1
  H  H285  1  0.71873000  0.82701000  0.97489000  1
  H  H286  1  0.78466000  0.89451000  0.97484000  1
  H  H287  1  0.21873000  0.32701000  0.97489000  1
  H  H288  1  0.28466000  0.39451000  0.97484000  1
  H  H289  1  0.28491000  0.89459000  0.47488000  1
  H  H290  1  0.21873000  0.17299000  0.52511000  1
  H  H291  1  0.28127000  0.82701000  0.02511000  1
  H  H292  1  0.21534000  0.89451000  0.02516000  1
  H  H293  1  0.78127000  0.32701000  0.02511000  1
  H  H294  1  0.71534000  0.39451000  0.02516000  1
  H  H295  1  0.32701000  0.52511000  0.28127000  1
  H  H296  1  0.82701000  0.52511000  0.78127000  1
  H  H297  1  0.67299000  0.02511000  0.21873000  1
  H  H298  1  0.57381000  0.01550000  0.24045000  1
  H  H299  1  0.57328000  0.06746000  0.29241000  1
  H  H300  1  0.17299000  0.02511000  0.71873000  1
  H  H301  1  0.07381000  0.01550000  0.74045000  1
  H  H302  1  0.07328000  0.06746000  0.79241000  1
  H  H303  1  0.67299000  0.97489000  0.78127000  1
  H  H304  1  0.57328000  0.93254000  0.70759000  1
  H  H305  1  0.57381000  0.98450000  0.75955000  1
  H  H306  1  0.17299000  0.97489000  0.28127000  1
  H  H307  1  0.07328000  0.93254000  0.20759000  1
  H  H308  1  0.07381000  0.98450000  0.25955000  1
  H  H309  1  0.32701000  0.47489000  0.71873000  1
  H  H310  1  0.39451000  0.47484000  0.78466000  1
  H  H311  1  0.82701000  0.47489000  0.21873000  1
  H  H312  1  0.84497000  0.18032000  0.87027000  1
  H  H313  1  0.91545000  0.11283000  0.85888000  1
  H  H314  1  0.85888000  0.08455000  0.88717000  1
  H  H315  1  0.88717000  0.14112000  0.91545000  1
  C  C316  1  0.68221000  0.24146000  0.48630000  1
  C  C317  1  0.64508000  0.20516000  0.48620000  1
  C  C318  1  0.59210000  0.22620000  0.46570000  1
  C  C319  1  0.68221000  0.74146000  0.98630000  1
  C  C320  1  0.64508000  0.70516000  0.98620000  1
  C  C321  1  0.59210000  0.72620000  0.96570000  1
  C  C322  1  0.18221000  0.24146000  0.98630000  1
  C  C323  1  0.14508000  0.20516000  0.98620000  1
  C  C324  1  0.09210000  0.22620000  0.96570000  1
  C  C325  1  0.18221000  0.74146000  0.48630000  1
  C  C326  1  0.14508000  0.70516000  0.48620000  1
  C  C327  1  0.09210000  0.72620000  0.46570000  1
  C  C328  1  0.31779000  0.74146000  0.01370000  1
  C  C329  1  0.35492000  0.70516000  0.01380000  1
  C  C330  1  0.40790000  0.72620000  0.03430000  1
  C  C331  1  0.81779000  0.24146000  0.01370000  1
  C  C332  1  0.85492000  0.20516000  0.01380000  1
  C  C333  1  0.90790000  0.22620000  0.03430000  1
  C  C334  1  0.68221000  0.75854000  0.51370000  1
  C  C335  1  0.64508000  0.79484000  0.51380000  1
  C  C336  1  0.18221000  0.25854000  0.51370000  1
  C  C337  1  0.14508000  0.29484000  0.51380000  1
  C  C338  1  0.48630000  0.18221000  0.74146000  1
  C  C339  1  0.48620000  0.14508000  0.70516000  1
  C  C340  1  0.48630000  0.81779000  0.25854000  1
  C  C341  1  0.48620000  0.85492000  0.29484000  1
  C  C342  1  0.98630000  0.31779000  0.25854000  1
  C  C343  1  0.98620000  0.35492000  0.29484000  1
  C  C344  1  0.96570000  0.40790000  0.27380000  1
  C  C345  1  0.98630000  0.81779000  0.75854000  1
  C  C346  1  0.98620000  0.85492000  0.79484000  1
  C  C347  1  0.51370000  0.31779000  0.24146000  1
  C  C348  1  0.51380000  0.35492000  0.20516000  1
  C  C349  1  0.51370000  0.81779000  0.74146000  1
  C  C350  1  0.51380000  0.85492000  0.70516000  1
  C  C351  1  0.53430000  0.90790000  0.72620000  1
  C  C352  1  0.01370000  0.31779000  0.74146000  1
  C  C353  1  0.01380000  0.35492000  0.70516000  1
  C  C354  1  0.03430000  0.40790000  0.72620000  1
  C  C355  1  0.01370000  0.81779000  0.24146000  1
  C  C356  1  0.01380000  0.85492000  0.20516000  1
  C  C357  1  0.24146000  0.48630000  0.68221000  1
  C  C358  1  0.20516000  0.48620000  0.64508000  1
  C  C359  1  0.22620000  0.46570000  0.59210000  1
  C  C360  1  0.74146000  0.48630000  0.18221000  1
  C  C361  1  0.70516000  0.48620000  0.14508000  1
  C  C362  1  0.75854000  0.98630000  0.81779000  1
  C  C363  1  0.79484000  0.98620000  0.85492000  1
  C  C364  1  0.77380000  0.96570000  0.90790000  1
  C  C365  1  0.25854000  0.98630000  0.31779000  1
  C  C366  1  0.29484000  0.98620000  0.35492000  1
  C  C367  1  0.27380000  0.96570000  0.40790000  1
  C  C368  1  0.24146000  0.51370000  0.31779000  1
  C  C369  1  0.20516000  0.51380000  0.35492000  1
  C  C370  1  0.74146000  0.51370000  0.81779000  1
  C  C371  1  0.70516000  0.51380000  0.85492000  1
  C  C372  1  0.75854000  0.01370000  0.18221000  1
  C  C373  1  0.79484000  0.01380000  0.14508000  1
  C  C374  1  0.77380000  0.03430000  0.09210000  1
  C  C375  1  0.25854000  0.01370000  0.68221000  1
  C  C376  1  0.29484000  0.01380000  0.64508000  1
  C  C377  1  0.27380000  0.03430000  0.59210000  1
  C  C378  1  0.24146000  0.68221000  0.51370000  1
  C  C379  1  0.20516000  0.64508000  0.51380000  1
  C  C380  1  0.24146000  0.18221000  0.01370000  1
  C  C381  1  0.20516000  0.14508000  0.01380000  1
  C  C382  1  0.74146000  0.68221000  0.01370000  1
  C  C383  1  0.70516000  0.64508000  0.01380000  1
  C  C384  1  0.74146000  0.18221000  0.51370000  1
  C  C385  1  0.70516000  0.14508000  0.51380000  1
  C  C386  1  0.24146000  0.31779000  0.48630000  1
  C  C387  1  0.20516000  0.35492000  0.48620000  1
  C  C388  1  0.22620000  0.40790000  0.46570000  1
  C  C389  1  0.74146000  0.81779000  0.48630000  1
  C  C390  1  0.70516000  0.85492000  0.48620000  1
  C  C391  1  0.72620000  0.90790000  0.46570000  1
  C  C392  1  0.75854000  0.18221000  0.98630000  1
  C  C393  1  0.79484000  0.14508000  0.98620000  1
  C  C394  1  0.25854000  0.68221000  0.98630000  1
  C  C395  1  0.29484000  0.64508000  0.98620000  1
  C  C396  1  0.68221000  0.48630000  0.75854000  1
  C  C397  1  0.64508000  0.48620000  0.79484000  1
  C  C398  1  0.59210000  0.46570000  0.77380000  1
  C  C399  1  0.18221000  0.48630000  0.25854000  1
  C  C400  1  0.14508000  0.48620000  0.29484000  1
  C  C401  1  0.09210000  0.46570000  0.27380000  1
  C  C402  1  0.31779000  0.98630000  0.74146000  1
  C  C403  1  0.35492000  0.98620000  0.70516000  1
  C  C404  1  0.40790000  0.96570000  0.72620000  1
  C  C405  1  0.81779000  0.98630000  0.24146000  1
  C  C406  1  0.85492000  0.98620000  0.20516000  1
  C  C407  1  0.90790000  0.96570000  0.22620000  1
  C  C408  1  0.31779000  0.01370000  0.25854000  1
  C  C409  1  0.35492000  0.01380000  0.29484000  1
  C  C410  1  0.40790000  0.03430000  0.27380000  1
  C  C411  1  0.81779000  0.01370000  0.75854000  1
  C  C412  1  0.85492000  0.01380000  0.79484000  1
  C  C413  1  0.90790000  0.03430000  0.77380000  1
  C  C414  1  0.68221000  0.51370000  0.24146000  1
  C  C415  1  0.64508000  0.51380000  0.20516000  1
  C  C416  1  0.59210000  0.53430000  0.22620000  1
  C  C417  1  0.18221000  0.51370000  0.74146000  1
  C  C418  1  0.14508000  0.51380000  0.70516000  1
  C  C419  1  0.48630000  0.75854000  0.68221000  1
  C  C420  1  0.48620000  0.79484000  0.64508000  1
  C  C421  1  0.48630000  0.25854000  0.18221000  1
  C  C422  1  0.48620000  0.29484000  0.14508000  1
  C  C423  1  0.46570000  0.27380000  0.09210000  1
  C  C424  1  0.98630000  0.75854000  0.18221000  1
  C  C425  1  0.98620000  0.79484000  0.14508000  1
  C  C426  1  0.96570000  0.77380000  0.09210000  1
  C  C427  1  0.98630000  0.25854000  0.68221000  1
  C  C428  1  0.98620000  0.29484000  0.64508000  1
  C  C429  1  0.51370000  0.24146000  0.68221000  1
  C  C430  1  0.51380000  0.20516000  0.64508000  1
  C  C431  1  0.53430000  0.22620000  0.59210000  1
  C  C432  1  0.51370000  0.75854000  0.31779000  1
  C  C433  1  0.51380000  0.79484000  0.35492000  1
  C  C434  1  0.53430000  0.77380000  0.40790000  1
  C  C435  1  0.01370000  0.75854000  0.81779000  1
  C  C436  1  0.01380000  0.79484000  0.85492000  1
  C  C437  1  0.03430000  0.77380000  0.90790000  1
  C  C438  1  0.01370000  0.25854000  0.31779000  1
  C  C439  1  0.01380000  0.29484000  0.35492000  1
  C  C440  1  0.31779000  0.75854000  0.51370000  1
  C  C441  1  0.35492000  0.79484000  0.51380000  1
  C  C442  1  0.40790000  0.77380000  0.53430000  1
  C  C443  1  0.31779000  0.25854000  0.01370000  1
  C  C444  1  0.35492000  0.29484000  0.01380000  1
  C  C445  1  0.40790000  0.27380000  0.03430000  1
  C  C446  1  0.81779000  0.75854000  0.01370000  1
  C  C447  1  0.85492000  0.79484000  0.01380000  1
  C  C448  1  0.90790000  0.77380000  0.03430000  1
  C  C449  1  0.81779000  0.25854000  0.51370000  1
  C  C450  1  0.85492000  0.29484000  0.51380000  1
  C  C451  1  0.90790000  0.27380000  0.53430000  1
  C  C452  1  0.68221000  0.25854000  0.98630000  1
  C  C453  1  0.64508000  0.29484000  0.98620000  1
  C  C454  1  0.59210000  0.27380000  0.96570000  1
  C  C455  1  0.18221000  0.75854000  0.98630000  1
  C  C456  1  0.14508000  0.79484000  0.98620000  1
  C  C457  1  0.09210000  0.77380000  0.96570000  1
  C  C458  1  0.31779000  0.24146000  0.48630000  1
  C  C459  1  0.35492000  0.20516000  0.48620000  1
  C  C460  1  0.81779000  0.74146000  0.48630000  1
  C  C461  1  0.85492000  0.70516000  0.48620000  1
  C  C462  1  0.51370000  0.31779000  0.75854000  1
  C  C463  1  0.51380000  0.35492000  0.79484000  1
  C  C464  1  0.51370000  0.68221000  0.24146000  1
  C  C465  1  0.51380000  0.64508000  0.20516000  1
  C  C466  1  0.01370000  0.68221000  0.74146000  1
  C  C467  1  0.01380000  0.64508000  0.70516000  1
  C  C468  1  0.01370000  0.18221000  0.24146000  1
  C  C469  1  0.01380000  0.14508000  0.20516000  1
  C  C470  1  0.03430000  0.09210000  0.22620000  1
  C  C471  1  0.48630000  0.68221000  0.75854000  1
  C  C472  1  0.48620000  0.64508000  0.79484000  1
  C  C473  1  0.46570000  0.59210000  0.77380000  1
  C  C474  1  0.48630000  0.18221000  0.25854000  1
  C  C475  1  0.48620000  0.14508000  0.29484000  1
  C  C476  1  0.98630000  0.68221000  0.25854000  1
  C  C477  1  0.98620000  0.64508000  0.29484000  1
  C  C478  1  0.98630000  0.18221000  0.75854000  1
  C  C479  1  0.98620000  0.14508000  0.79484000  1
  C  C480  1  0.96570000  0.09210000  0.77380000  1
  C  C481  1  0.75854000  0.51370000  0.31779000  1
  C  C482  1  0.79484000  0.51380000  0.35492000  1
  C  C483  1  0.25854000  0.51370000  0.81779000  1
  C  C484  1  0.29484000  0.51380000  0.85492000  1
  C  C485  1  0.27380000  0.53430000  0.90790000  1
  C  C486  1  0.24146000  0.01370000  0.18221000  1
  C  C487  1  0.20516000  0.01380000  0.14508000  1
  C  C488  1  0.22620000  0.03430000  0.09210000  1
  C  C489  1  0.74146000  0.01370000  0.68221000  1
  C  C490  1  0.70516000  0.01380000  0.64508000  1
  C  C491  1  0.72620000  0.03430000  0.59210000  1
  C  C492  1  0.75854000  0.48630000  0.68221000  1
  C  C493  1  0.79484000  0.48620000  0.64508000  1
  C  C494  1  0.25854000  0.48630000  0.18221000  1
  C  C495  1  0.29484000  0.48620000  0.14508000  1
  C  C496  1  0.24146000  0.98630000  0.81779000  1
  C  C497  1  0.20516000  0.98620000  0.85492000  1
  C  C498  1  0.22620000  0.96570000  0.90790000  1
  C  C499  1  0.74146000  0.98630000  0.31779000  1
  C  C500  1  0.70516000  0.98620000  0.35492000  1
  C  C501  1  0.72620000  0.96570000  0.40790000  1
  C  C502  1  0.75854000  0.31779000  0.48630000  1
  C  C503  1  0.79484000  0.35492000  0.48620000  1
  C  C504  1  0.75854000  0.81779000  0.98630000  1
  C  C505  1  0.79484000  0.85492000  0.98620000  1
  C  C506  1  0.25854000  0.31779000  0.98630000  1
  C  C507  1  0.29484000  0.35492000  0.98620000  1
  C  C508  1  0.25854000  0.81779000  0.48630000  1
  C  C509  1  0.29484000  0.85492000  0.48620000  1
  C  C510  1  0.75854000  0.68221000  0.51370000  1
  C  C511  1  0.79484000  0.64508000  0.51380000  1
  C  C512  1  0.77380000  0.59210000  0.53430000  1
  C  C513  1  0.25854000  0.18221000  0.51370000  1
  C  C514  1  0.29484000  0.14508000  0.51380000  1
  C  C515  1  0.27380000  0.09210000  0.53430000  1
  C  C516  1  0.24146000  0.81779000  0.01370000  1
  C  C517  1  0.20516000  0.85492000  0.01380000  1
  C  C518  1  0.74146000  0.31779000  0.01370000  1
  C  C519  1  0.70516000  0.35492000  0.01380000  1
  C  C520  1  0.31779000  0.51370000  0.24146000  1
  C  C521  1  0.35492000  0.51380000  0.20516000  1
  C  C522  1  0.40790000  0.53430000  0.22620000  1
  C  C523  1  0.81779000  0.51370000  0.74146000  1
  C  C524  1  0.85492000  0.51380000  0.70516000  1
  C  C525  1  0.90790000  0.53430000  0.72620000  1
  C  C526  1  0.68221000  0.01370000  0.25854000  1
  C  C527  1  0.64508000  0.01380000  0.29484000  1
  C  C528  1  0.59210000  0.03430000  0.27380000  1
  C  C529  1  0.18221000  0.01370000  0.75854000  1
  C  C530  1  0.14508000  0.01380000  0.79484000  1
  C  C531  1  0.09210000  0.03430000  0.77380000  1
  C  C532  1  0.68221000  0.98630000  0.74146000  1
  C  C533  1  0.64508000  0.98620000  0.70516000  1
  C  C534  1  0.59210000  0.96570000  0.72620000  1
  C  C535  1  0.18221000  0.98630000  0.24146000  1
  C  C536  1  0.14508000  0.98620000  0.20516000  1
  C  C537  1  0.09210000  0.96570000  0.22620000  1
  C  C538  1  0.31779000  0.48630000  0.75854000  1
  C  C539  1  0.35492000  0.48620000  0.79484000  1
  C  C540  1  0.81779000  0.48630000  0.25854000  1
  C  C541  1  0.85492000  0.48620000  0.29484000  1
  C  C542  1  0.90790000  0.46570000  0.27380000  1
  C  C543  1  0.51370000  0.24146000  0.31779000  1
  C  C544  1  0.51380000  0.20516000  0.35492000  1
  C  C545  1  0.53430000  0.22620000  0.40790000  1
  C  C546  1  0.51370000  0.74146000  0.81779000  1
  C  C547  1  0.51380000  0.70516000  0.85492000  1
  C  C548  1  0.01370000  0.24146000  0.81779000  1
  C  C549  1  0.01380000  0.20516000  0.85492000  1
  C  C550  1  0.01370000  0.74146000  0.31779000  1
  C  C551  1  0.01380000  0.70516000  0.35492000  1
  C  C552  1  0.03430000  0.72620000  0.40790000  1
  C  C553  1  0.48630000  0.25854000  0.81779000  1
  C  C554  1  0.48620000  0.29484000  0.85492000  1
  C  C555  1  0.46570000  0.27380000  0.90790000  1
  C  C556  1  0.48630000  0.74146000  0.18221000  1
  C  C557  1  0.48620000  0.70516000  0.14508000  1
  C  C558  1  0.46570000  0.72620000  0.09210000  1
  C  C559  1  0.98630000  0.24146000  0.18221000  1
  C  C560  1  0.98620000  0.20516000  0.14508000  1
  C  C561  1  0.98630000  0.74146000  0.68221000  1
  C  C562  1  0.98620000  0.70516000  0.64508000  1
  C  C563  1  0.96570000  0.72620000  0.59210000  1
  C  C564  1  0.61724000  0.11724000  0.50000000  1
  C  C565  1  0.65667000  0.15667000  0.50000000  1
  C  C566  1  0.73039000  0.23039000  0.50000000  1
  C  C567  1  0.61724000  0.61724000  0.00000000  1
  C  C568  1  0.65667000  0.65667000  0.00000000  1
  C  C569  1  0.73039000  0.73039000  0.00000000  1
  C  C570  1  0.38276000  0.88276000  0.50000000  1
  C  C571  1  0.34333000  0.84333000  0.50000000  1
  C  C572  1  0.26961000  0.76961000  0.50000000  1
  C  C573  1  0.38276000  0.38276000  0.00000000  1
  C  C574  1  0.34333000  0.34333000  0.00000000  1
  C  C575  1  0.26961000  0.26961000  0.00000000  1
  C  C576  1  0.38276000  0.11724000  0.50000000  1
  C  C577  1  0.34333000  0.15667000  0.50000000  1
  C  C578  1  0.26961000  0.23039000  0.50000000  1
  C  C579  1  0.38276000  0.61724000  0.00000000  1
  C  C580  1  0.34333000  0.65667000  0.00000000  1
  C  C581  1  0.26961000  0.73039000  0.00000000  1
  C  C582  1  0.61724000  0.88276000  0.50000000  1
  C  C583  1  0.65667000  0.84333000  0.50000000  1
  C  C584  1  0.73039000  0.76961000  0.50000000  1
  C  C585  1  0.61724000  0.38276000  0.00000000  1
  C  C586  1  0.65667000  0.34333000  0.00000000  1
  C  C587  1  0.73039000  0.26961000  0.00000000  1
  C  C588  1  0.50000000  0.61724000  0.11724000  1
  C  C589  1  0.50000000  0.65667000  0.15667000  1
  C  C590  1  0.50000000  0.73039000  0.23039000  1
  C  C591  1  0.00000000  0.61724000  0.61724000  1
  C  C592  1  0.00000000  0.65667000  0.65667000  1
  C  C593  1  0.00000000  0.73039000  0.73039000  1
  C  C594  1  0.50000000  0.38276000  0.88276000  1
  C  C595  1  0.50000000  0.34333000  0.84333000  1
  C  C596  1  0.50000000  0.26961000  0.76961000  1
  C  C597  1  0.00000000  0.38276000  0.38276000  1
  C  C598  1  0.00000000  0.34333000  0.34333000  1
  C  C599  1  0.00000000  0.26961000  0.26961000  1
  C  C600  1  0.50000000  0.38276000  0.11724000  1
  C  C601  1  0.50000000  0.34333000  0.15667000  1
  C  C602  1  0.50000000  0.26961000  0.23039000  1
  C  C603  1  0.00000000  0.38276000  0.61724000  1
  C  C604  1  0.00000000  0.34333000  0.65667000  1
  C  C605  1  0.00000000  0.26961000  0.73039000  1
  C  C606  1  0.50000000  0.61724000  0.88276000  1
  C  C607  1  0.50000000  0.65667000  0.84333000  1
  C  C608  1  0.50000000  0.73039000  0.76961000  1
  C  C609  1  0.00000000  0.61724000  0.38276000  1
  C  C610  1  0.00000000  0.65667000  0.34333000  1
  C  C611  1  0.00000000  0.73039000  0.26961000  1
  C  C612  1  0.11724000  0.50000000  0.61724000  1
  C  C613  1  0.15667000  0.50000000  0.65667000  1
  C  C614  1  0.23039000  0.50000000  0.73039000  1
  C  C615  1  0.11724000  0.00000000  0.11724000  1
  C  C616  1  0.15667000  0.00000000  0.15667000  1
  C  C617  1  0.23039000  0.00000000  0.23039000  1
  C  C618  1  0.88276000  0.50000000  0.38276000  1
  C  C619  1  0.84333000  0.50000000  0.34333000  1
  C  C620  1  0.76961000  0.50000000  0.26961000  1
  C  C621  1  0.88276000  0.00000000  0.88276000  1
  C  C622  1  0.84333000  0.00000000  0.84333000  1
  C  C623  1  0.76961000  0.00000000  0.76961000  1
  C  C624  1  0.11724000  0.50000000  0.38276000  1
  C  C625  1  0.15667000  0.50000000  0.34333000  1
  C  C626  1  0.23039000  0.50000000  0.26961000  1
  C  C627  1  0.11724000  0.00000000  0.88276000  1
  C  C628  1  0.15667000  0.00000000  0.84333000  1
  C  C629  1  0.23039000  0.00000000  0.76961000  1
  C  C630  1  0.88276000  0.50000000  0.61724000  1
  C  C631  1  0.84333000  0.50000000  0.65667000  1
  C  C632  1  0.76961000  0.50000000  0.73039000  1
  C  C633  1  0.88276000  0.00000000  0.11724000  1
  C  C634  1  0.84333000  0.00000000  0.15667000  1
  C  C635  1  0.76961000  0.00000000  0.23039000  1
  C  C636  1  0.11724000  0.61724000  0.50000000  1
  C  C637  1  0.15667000  0.65667000  0.50000000  1
  C  C638  1  0.23039000  0.73039000  0.50000000  1
  C  C639  1  0.11724000  0.11724000  0.00000000  1
  C  C640  1  0.15667000  0.15667000  0.00000000  1
  C  C641  1  0.23039000  0.23039000  0.00000000  1
  C  C642  1  0.88276000  0.38276000  0.50000000  1
  C  C643  1  0.84333000  0.34333000  0.50000000  1
  C  C644  1  0.76961000  0.26961000  0.50000000  1
  C  C645  1  0.88276000  0.88276000  0.00000000  1
  C  C646  1  0.84333000  0.84333000  0.00000000  1
  C  C647  1  0.76961000  0.76961000  0.00000000  1
  C  C648  1  0.11724000  0.38276000  0.50000000  1
  C  C649  1  0.15667000  0.34333000  0.50000000  1
  C  C650  1  0.23039000  0.26961000  0.50000000  1
  C  C651  1  0.11724000  0.88276000  0.00000000  1
  C  C652  1  0.15667000  0.84333000  0.00000000  1
  C  C653  1  0.23039000  0.76961000  0.00000000  1
  C  C654  1  0.88276000  0.61724000  0.50000000  1
  C  C655  1  0.84333000  0.65667000  0.50000000  1
  C  C656  1  0.76961000  0.73039000  0.50000000  1
  C  C657  1  0.88276000  0.11724000  0.00000000  1
  C  C658  1  0.84333000  0.15667000  0.00000000  1
  C  C659  1  0.76961000  0.23039000  0.00000000  1
  C  C660  1  0.61724000  0.50000000  0.88276000  1
  C  C661  1  0.65667000  0.50000000  0.84333000  1
  C  C662  1  0.73039000  0.50000000  0.76961000  1
  C  C663  1  0.61724000  0.00000000  0.38276000  1
  C  C664  1  0.65667000  0.00000000  0.34333000  1
  C  C665  1  0.73039000  0.00000000  0.26961000  1
  C  C666  1  0.38276000  0.50000000  0.11724000  1
  C  C667  1  0.34333000  0.50000000  0.15667000  1
  C  C668  1  0.26961000  0.50000000  0.23039000  1
  C  C669  1  0.38276000  0.00000000  0.61724000  1
  C  C670  1  0.34333000  0.00000000  0.65667000  1
  C  C671  1  0.26961000  0.00000000  0.73039000  1
  C  C672  1  0.38276000  0.50000000  0.88276000  1
  C  C673  1  0.34333000  0.50000000  0.84333000  1
  C  C674  1  0.26961000  0.50000000  0.76961000  1
  C  C675  1  0.38276000  0.00000000  0.38276000  1
  C  C676  1  0.34333000  0.00000000  0.34333000  1
  C  C677  1  0.26961000  0.00000000  0.26961000  1
  C  C678  1  0.61724000  0.50000000  0.11724000  1
  C  C679  1  0.65667000  0.50000000  0.15667000  1
  C  C680  1  0.73039000  0.50000000  0.23039000  1
  C  C681  1  0.61724000  0.00000000  0.61724000  1
  C  C682  1  0.65667000  0.00000000  0.65667000  1
  C  C683  1  0.73039000  0.00000000  0.73039000  1
  C  C684  1  0.50000000  0.11724000  0.38276000  1
  C  C685  1  0.50000000  0.15667000  0.34333000  1
  C  C686  1  0.50000000  0.23039000  0.26961000  1
  C  C687  1  0.00000000  0.11724000  0.88276000  1
  C  C688  1  0.00000000  0.15667000  0.84333000  1
  C  C689  1  0.00000000  0.23039000  0.76961000  1
  C  C690  1  0.50000000  0.88276000  0.61724000  1
  C  C691  1  0.50000000  0.84333000  0.65667000  1
  C  C692  1  0.50000000  0.76961000  0.73039000  1
  C  C693  1  0.00000000  0.88276000  0.11724000  1
  C  C694  1  0.00000000  0.84333000  0.15667000  1
  C  C695  1  0.00000000  0.76961000  0.23039000  1
  C  C696  1  0.50000000  0.11724000  0.61724000  1
  C  C697  1  0.50000000  0.15667000  0.65667000  1
  C  C698  1  0.50000000  0.23039000  0.73039000  1
  C  C699  1  0.00000000  0.11724000  0.11724000  1
  C  C700  1  0.00000000  0.15667000  0.15667000  1
  C  C701  1  0.00000000  0.23039000  0.23039000  1
  C  C702  1  0.50000000  0.88276000  0.38276000  1
  C  C703  1  0.50000000  0.84333000  0.34333000  1
  C  C704  1  0.50000000  0.76961000  0.26961000  1
  C  C705  1  0.00000000  0.88276000  0.88276000  1
  C  C706  1  0.00000000  0.84333000  0.84333000  1
  C  C707  1  0.00000000  0.76961000  0.76961000  1
  C  C708  1  0.87900000  0.12100000  0.87900000  1
  O  O709  1  0.57236000  0.13171000  0.50000000  1
  O  O710  1  0.57236000  0.63171000  0.00000000  1
  O  O711  1  0.07236000  0.13171000  0.00000000  1
  O  O712  1  0.07236000  0.63171000  0.50000000  1
  O  O713  1  0.42764000  0.86829000  0.50000000  1
  O  O714  1  0.42764000  0.36829000  0.00000000  1
  O  O715  1  0.92764000  0.86829000  0.00000000  1
  O  O716  1  0.92764000  0.36829000  0.50000000  1
  O  O717  1  0.42764000  0.13171000  0.50000000  1
  O  O718  1  0.42764000  0.63171000  0.00000000  1
  O  O719  1  0.92764000  0.13171000  0.00000000  1
  O  O720  1  0.92764000  0.63171000  0.50000000  1
  O  O721  1  0.57236000  0.86829000  0.50000000  1
  O  O722  1  0.57236000  0.36829000  0.00000000  1
  O  O723  1  0.07236000  0.86829000  0.00000000  1
  O  O724  1  0.07236000  0.36829000  0.50000000  1
  O  O725  1  0.50000000  0.57236000  0.13171000  1
  O  O726  1  0.50000000  0.07236000  0.63171000  1
  O  O727  1  0.00000000  0.57236000  0.63171000  1
  O  O728  1  0.00000000  0.07236000  0.13171000  1
  O  O729  1  0.50000000  0.42764000  0.86829000  1
  O  O730  1  0.50000000  0.92764000  0.36829000  1
  O  O731  1  0.00000000  0.42764000  0.36829000  1
  O  O732  1  0.00000000  0.92764000  0.86829000  1
  O  O733  1  0.50000000  0.42764000  0.13171000  1
  O  O734  1  0.50000000  0.92764000  0.63171000  1
  O  O735  1  0.00000000  0.42764000  0.63171000  1
  O  O736  1  0.00000000  0.92764000  0.13171000  1
  O  O737  1  0.50000000  0.57236000  0.86829000  1
  O  O738  1  0.50000000  0.07236000  0.36829000  1
  O  O739  1  0.00000000  0.57236000  0.36829000  1
  O  O740  1  0.00000000  0.07236000  0.86829000  1
  O  O741  1  0.13171000  0.50000000  0.57236000  1
  O  O742  1  0.13171000  0.00000000  0.07236000  1
  O  O743  1  0.63171000  0.50000000  0.07236000  1
  O  O744  1  0.63171000  0.00000000  0.57236000  1
  O  O745  1  0.86829000  0.50000000  0.42764000  1
  O  O746  1  0.86829000  0.00000000  0.92764000  1
  O  O747  1  0.36829000  0.50000000  0.92764000  1
  O  O748  1  0.36829000  0.00000000  0.42764000  1
  O  O749  1  0.13171000  0.50000000  0.42764000  1
  O  O750  1  0.13171000  0.00000000  0.92764000  1
  O  O751  1  0.63171000  0.50000000  0.92764000  1
  O  O752  1  0.63171000  0.00000000  0.42764000  1
  O  O753  1  0.86829000  0.50000000  0.57236000  1
  O  O754  1  0.86829000  0.00000000  0.07236000  1
  O  O755  1  0.36829000  0.50000000  0.07236000  1
  O  O756  1  0.36829000  0.00000000  0.57236000  1
  O  O757  1  0.13171000  0.57236000  0.50000000  1
  O  O758  1  0.13171000  0.07236000  0.00000000  1
  O  O759  1  0.63171000  0.57236000  0.00000000  1
  O  O760  1  0.63171000  0.07236000  0.50000000  1
  O  O761  1  0.86829000  0.42764000  0.50000000  1
  O  O762  1  0.86829000  0.92764000  0.00000000  1
  O  O763  1  0.36829000  0.42764000  0.00000000  1
  O  O764  1  0.36829000  0.92764000  0.50000000  1
  O  O765  1  0.13171000  0.42764000  0.50000000  1
  O  O766  1  0.13171000  0.92764000  0.00000000  1
  O  O767  1  0.63171000  0.42764000  0.00000000  1
  O  O768  1  0.63171000  0.92764000  0.50000000  1
  O  O769  1  0.86829000  0.57236000  0.50000000  1
  O  O770  1  0.86829000  0.07236000  0.00000000  1
  O  O771  1  0.36829000  0.57236000  0.00000000  1
  O  O772  1  0.36829000  0.07236000  0.50000000  1
  O  O773  1  0.57236000  0.50000000  0.86829000  1
  O  O774  1  0.57236000  0.00000000  0.36829000  1
  O  O775  1  0.07236000  0.50000000  0.36829000  1
  O  O776  1  0.07236000  0.00000000  0.86829000  1
  O  O777  1  0.42764000  0.50000000  0.13171000  1
  O  O778  1  0.42764000  0.00000000  0.63171000  1
  O  O779  1  0.92764000  0.50000000  0.63171000  1
  O  O780  1  0.92764000  0.00000000  0.13171000  1
  O  O781  1  0.42764000  0.50000000  0.86829000  1
  O  O782  1  0.42764000  0.00000000  0.36829000  1
  O  O783  1  0.92764000  0.50000000  0.36829000  1
  O  O784  1  0.92764000  0.00000000  0.86829000  1
  O  O785  1  0.57236000  0.50000000  0.13171000  1
  O  O786  1  0.57236000  0.00000000  0.63171000  1
  O  O787  1  0.07236000  0.50000000  0.63171000  1
  O  O788  1  0.07236000  0.00000000  0.13171000  1
  O  O789  1  0.50000000  0.13171000  0.42764000  1
  O  O790  1  0.50000000  0.63171000  0.92764000  1
  O  O791  1  0.00000000  0.13171000  0.92764000  1
  O  O792  1  0.00000000  0.63171000  0.42764000  1
  O  O793  1  0.50000000  0.86829000  0.57236000  1
  O  O794  1  0.50000000  0.36829000  0.07236000  1
  O  O795  1  0.00000000  0.86829000  0.07236000  1
  O  O796  1  0.00000000  0.36829000  0.57236000  1
  O  O797  1  0.50000000  0.13171000  0.57236000  1
  O  O798  1  0.50000000  0.63171000  0.07236000  1
  O  O799  1  0.00000000  0.13171000  0.07236000  1
  O  O800  1  0.00000000  0.63171000  0.57236000  1
  O  O801  1  0.50000000  0.86829000  0.42764000  1
  O  O802  1  0.50000000  0.36829000  0.92764000  1
  O  O803  1  0.00000000  0.86829000  0.92764000  1
  O  O804  1  0.00000000  0.36829000  0.42764000  1
  O  O805  1  0.44811000  0.05189000  0.44811000  1
  O  O806  1  0.55189000  0.94811000  0.44811000  1
  O  O807  1  0.05189000  0.44811000  0.44811000  1
  O  O808  1  0.55189000  0.05189000  0.55189000  1
  O  O809  1  0.05189000  0.05189000  0.05189000  1
  O  O810  1  0.44811000  0.94811000  0.55189000  1
  O  O811  1  0.44811000  0.44811000  0.05189000  1
  O  O812  1  0.44811000  0.55189000  0.94811000  1
  O  O813  1  0.55189000  0.55189000  0.05189000  1
  O  O814  1  0.55189000  0.44811000  0.94811000  1
  O  O815  1  0.05189000  0.94811000  0.94811000  1
  O  O816  1  0.94811000  0.44811000  0.55189000  1
  O  O817  1  0.94811000  0.94811000  0.05189000  1
  O  O818  1  0.05189000  0.55189000  0.55189000  1
  O  O819  1  0.94811000  0.55189000  0.44811000  1
  O  O820  1  0.94811000  0.05189000  0.94811000  1
  O  O821  1  0.05189000  0.44811000  0.55189000  1
  O  O822  1  0.05189000  0.94811000  0.05189000  1
  O  O823  1  0.94811000  0.55189000  0.55189000  1
  O  O824  1  0.94811000  0.05189000  0.05189000  1
  O  O825  1  0.44811000  0.55189000  0.05189000  1
  O  O826  1  0.44811000  0.05189000  0.55189000  1
  O  O827  1  0.05189000  0.55189000  0.44811000  1
  O  O828  1  0.05189000  0.05189000  0.94811000  1
  O  O829  1  0.94811000  0.44811000  0.44811000  1
  O  O830  1  0.94811000  0.94811000  0.94811000  1
  O  O831  1  0.44811000  0.44811000  0.94811000  1
  O  O832  1  0.55189000  0.44811000  0.05189000  1
  O  O833  1  0.55189000  0.55189000  0.94811000  1
  O  O834  1  0.55189000  0.05189000  0.44811000  1
  O  O835  1  0.44811000  0.94811000  0.44811000  1
  O  O836  1  0.55189000  0.94811000  0.55189000  1
  O  O837  1  0.85690000  0.14310000  0.85690000  1
