# generated using pymatgen
data_Zr12H147C193O64
_symmetry_space_group_name_H-M   'P 1'
_cell_length_a   26.86900000
_cell_length_b   26.86900000
_cell_length_c   26.86900000
_cell_angle_alpha   90.00000000
_cell_angle_beta   90.00000000
_cell_angle_gamma   90.00000000
_symmetry_Int_Tables_number   1
_chemical_formula_structural   Zr12H147C193O64
_chemical_formula_sum   'Zr24 H294 C386 O128'
_cell_volume   19397.89079291
_cell_formula_units_Z   2
loop_
 _symmetry_equiv_pos_site_id
 _symmetry_equiv_pos_as_xyz
  1  'x, y, z'
loop_
 _atom_site_type_symbol
 _atom_site_label
 _atom_site_symmetry_multiplicity
 _atom_site_fract_x
 _atom_site_fract_y
 _atom_site_fract_z
 _atom_site_occupancy
  Zr  Zr0  1  0.50000000  0.09204000  0.50000000  1
  Zr  Zr1  1  0.50000000  0.59204000  0.00000000  1
  Zr  Zr2  1  0.00000000  0.09204000  0.00000000  1
  Zr  Zr3  1  0.00000000  0.59204000  0.50000000  1
  Zr  Zr4  1  0.50000000  0.90796000  0.50000000  1
  Zr  Zr5  1  0.50000000  0.40796000  0.00000000  1
  Zr  Zr6  1  0.00000000  0.90796000  0.00000000  1
  Zr  Zr7  1  0.00000000  0.40796000  0.50000000  1
  Zr  Zr8  1  0.50000000  0.50000000  0.09204000  1
  Zr  Zr9  1  0.50000000  0.00000000  0.59204000  1
  Zr  Zr10  1  0.00000000  0.50000000  0.59204000  1
  Zr  Zr11  1  0.00000000  0.00000000  0.09204000  1
  Zr  Zr12  1  0.50000000  0.50000000  0.90796000  1
  Zr  Zr13  1  0.50000000  0.00000000  0.40796000  1
  Zr  Zr14  1  0.00000000  0.50000000  0.40796000  1
  Zr  Zr15  1  0.00000000  0.00000000  0.90796000  1
  Zr  Zr16  1  0.09204000  0.50000000  0.50000000  1
  Zr  Zr17  1  0.09204000  0.00000000  0.00000000  1
  Zr  Zr18  1  0.59204000  0.50000000  0.00000000  1
  Zr  Zr19  1  0.59204000  0.00000000  0.50000000  1
  Zr  Zr20  1  0.90796000  0.50000000  0.50000000  1
  Zr  Zr21  1  0.90796000  0.00000000  0.00000000  1
  Zr  Zr22  1  0.40796000  0.50000000  0.00000000  1
  Zr  Zr23  1  0.40796000  0.00000000  0.50000000  1
  H  H24  1  0.67078000  0.27812000  0.47575000  1
  H  H25  1  0.33081000  0.72278000  0.47441000  1
  H  H26  1  0.32919000  0.22185000  0.97579000  1
  H  H27  1  0.82918000  0.72184000  0.97583000  1
  H  H28  1  0.33099000  0.27724000  0.52531000  1
  H  H29  1  0.67092000  0.72217000  0.52520000  1
  H  H30  1  0.67090000  0.22217000  0.02516000  1
  H  H31  1  0.17091000  0.72216000  0.02516000  1
  H  H32  1  0.47493000  0.17039000  0.77761000  1
  H  H33  1  0.97988000  0.66808000  0.77822000  1
  H  H34  1  0.97453000  0.16920000  0.27727000  1
  H  H35  1  0.47464000  0.83083000  0.22271000  1
  H  H36  1  0.52532000  0.33099000  0.27724000  1
  H  H37  1  0.52517000  0.82910000  0.77783000  1
  H  H38  1  0.02535000  0.33080000  0.77732000  1
  H  H39  1  0.02512000  0.82914000  0.27784000  1
  H  H40  1  0.27812000  0.47574000  0.67080000  1
  H  H41  1  0.77731000  0.47464000  0.16920000  1
  H  H42  1  0.77726000  0.97458000  0.66908000  1
  H  H43  1  0.22290000  0.97310000  0.33007000  1
  H  H44  1  0.27766000  0.52605000  0.32838000  1
  H  H45  1  0.77729000  0.52540000  0.83081000  1
  H  H46  1  0.77784000  0.02515000  0.32910000  1
  H  H47  1  0.22218000  0.02521000  0.67092000  1
  H  H48  1  0.77725000  0.16900000  0.52526000  1
  H  H49  1  0.72232000  0.83118000  0.02364000  1
  H  H50  1  0.22235000  0.33134000  0.02350000  1
  H  H51  1  0.22227000  0.82899000  0.52559000  1
  H  H52  1  0.27810000  0.83174000  0.97891000  1
  H  H53  1  0.77730000  0.33080000  0.97461000  1
  H  H54  1  0.77729000  0.83082000  0.47462000  1
  H  H55  1  0.22218000  0.17092000  0.47480000  1
  H  H56  1  0.67080000  0.47574000  0.72188000  1
  H  H57  1  0.66912000  0.97442000  0.22278000  1
  H  H58  1  0.16919000  0.47460000  0.22271000  1
  H  H59  1  0.33081000  0.97462000  0.77729000  1
  H  H60  1  0.67083000  0.52509000  0.27784000  1
  H  H61  1  0.67091000  0.02521000  0.77782000  1
  H  H62  1  0.16920000  0.52537000  0.77731000  1
  H  H63  1  0.47466000  0.72270000  0.66916000  1
  H  H64  1  0.47438000  0.22228000  0.17103000  1
  H  H65  1  0.97463000  0.72271000  0.16917000  1
  H  H66  1  0.97583000  0.22186000  0.67080000  1
  H  H67  1  0.52502000  0.27762000  0.67036000  1
  H  H68  1  0.02412000  0.27815000  0.17080000  1
  H  H69  1  0.02510000  0.77784000  0.67084000  1
  H  H70  1  0.52558000  0.72227000  0.32899000  1
  H  H71  1  0.82850000  0.22218000  0.52548000  1
  H  H72  1  0.67101000  0.77774000  0.02561000  1
  H  H73  1  0.17163000  0.27769000  0.02601000  1
  H  H74  1  0.16882000  0.77768000  0.52364000  1
  H  H75  1  0.16917000  0.22271000  0.47464000  1
  H  H76  1  0.32876000  0.77763000  0.97383000  1
  H  H77  1  0.82912000  0.27779000  0.97472000  1
  H  H78  1  0.82910000  0.77784000  0.47485000  1
  H  H79  1  0.52549000  0.32883000  0.72237000  1
  H  H80  1  0.02559000  0.33080000  0.22277000  1
  H  H81  1  0.02536000  0.83082000  0.72270000  1
  H  H82  1  0.52364000  0.66882000  0.27768000  1
  H  H83  1  0.47484000  0.67090000  0.72217000  1
  H  H84  1  0.47635000  0.16882000  0.22232000  1
  H  H85  1  0.97483000  0.67090000  0.22217000  1
  H  H86  1  0.97434000  0.16920000  0.72280000  1
  H  H87  1  0.72271000  0.52539000  0.33080000  1
  H  H88  1  0.72269000  0.02536000  0.83080000  1
  H  H89  1  0.22217000  0.52515000  0.82911000  1
  H  H90  1  0.27766000  0.02516000  0.17055000  1
  H  H91  1  0.72278000  0.47441000  0.66919000  1
  H  H92  1  0.72213000  0.97495000  0.17085000  1
  H  H93  1  0.22216000  0.47491000  0.17083000  1
  H  H94  1  0.27784000  0.97489000  0.82915000  1
  H  H95  1  0.72278000  0.33081000  0.47441000  1
  H  H96  1  0.27812000  0.67080000  0.47575000  1
  H  H97  1  0.27714000  0.16912000  0.97419000  1
  H  H98  1  0.77711000  0.66914000  0.97408000  1
  H  H99  1  0.72271000  0.66917000  0.52537000  1
  H  H100  1  0.72271000  0.16918000  0.02538000  1
  H  H101  1  0.22270000  0.66916000  0.02535000  1
  H  H102  1  0.27784000  0.32850000  0.52540000  1
  H  H103  1  0.33098000  0.52515000  0.27730000  1
  H  H104  1  0.82915000  0.52511000  0.77784000  1
  H  H105  1  0.83082000  0.02539000  0.27729000  1
  H  H106  1  0.16917000  0.02536000  0.72271000  1
  H  H107  1  0.33083000  0.47444000  0.72277000  1
  H  H108  1  0.82909000  0.47480000  0.22218000  1
  H  H109  1  0.82909000  0.97476000  0.72218000  1
  H  H110  1  0.52538000  0.27784000  0.32850000  1
  H  H111  1  0.52534000  0.77730000  0.83084000  1
  H  H112  1  0.02523000  0.27781000  0.82908000  1
  H  H113  1  0.02535000  0.77730000  0.33082000  1
  H  H114  1  0.47453000  0.22236000  0.82884000  1
  H  H115  1  0.97156000  0.72294000  0.82762000  1
  H  H116  1  0.97484000  0.22217000  0.32910000  1
  H  H117  1  0.47479000  0.77782000  0.17092000  1
  H  H118  1  0.89001000  0.75465000  0.93234000  1
  H  H119  1  0.91356000  0.73755000  0.98529000  1
  H  H120  1  0.59376000  0.73411000  0.54642000  1
  H  H121  1  0.56310000  0.77628000  0.50545000  1
  H  H122  1  0.58031000  0.70340000  0.06661000  1
  H  H123  1  0.56381000  0.72439000  0.00437000  1
  H  H124  1  0.90600000  0.76556000  0.45256000  1
  H  H125  1  0.92028000  0.70338000  0.43361000  1
  H  H126  1  0.09400000  0.73444000  0.04744000  1
  H  H127  1  0.06379000  0.77528000  0.00440000  1
  H  H128  1  0.23436000  0.90613000  0.54721000  1
  H  H129  1  0.27558000  0.93618000  0.50436000  1
  H  H130  1  0.40628000  0.76594000  0.95375000  1
  H  H131  1  0.41942000  0.70417000  0.93274000  1
  H  H132  1  0.24508000  0.61008000  0.43224000  1
  H  H133  1  0.21093000  0.56136000  0.48841000  1
  H  H134  1  0.38988000  0.25505000  0.93218000  1
  H  H135  1  0.41364000  0.23758000  0.98532000  1
  H  H136  1  0.27630000  0.06310000  0.49454000  1
  H  H137  1  0.10174000  0.19625000  0.06252000  1
  H  H138  1  0.06507000  0.21952000  0.00404000  1
  H  H139  1  0.22043000  0.43460000  0.50321000  1
  H  H140  1  0.56134000  0.21056000  0.48795000  1
  H  H141  1  0.61015000  0.24482000  0.43213000  1
  H  H142  1  0.59392000  0.23440000  0.04733000  1
  H  H143  1  0.56390000  0.27543000  0.00431000  1
  H  H144  1  0.93492000  0.28023000  0.50397000  1
  H  H145  1  0.90404000  0.23262000  0.54103000  1
  H  H146  1  0.90612000  0.26562000  0.95273000  1
  H  H147  1  0.91973000  0.20336000  0.93344000  1
  H  H148  1  0.58052000  0.79591000  0.56718000  1
  H  H149  1  0.93620000  0.72471000  0.49561000  1
  H  H150  1  0.47507000  0.89245000  0.28467000  1
  H  H151  1  0.51899000  0.60714000  0.21690000  1
  H  H152  1  0.29661000  0.91970000  0.56660000  1
  H  H153  1  0.26251000  0.58645000  0.48518000  1
  H  H154  1  0.47515000  0.78465000  0.60754000  1
  H  H155  1  0.52485000  0.71535000  0.89247000  1
  H  H156  1  0.58637000  0.26246000  0.48526000  1
  H  H157  1  0.89849000  0.30404000  0.56228000  1
  H  H158  1  0.52492000  0.39245000  0.21533000  1
  H  H159  1  0.48096000  0.10716000  0.28310000  1
  H  H160  1  0.29591000  0.08053000  0.43284000  1
  H  H161  1  0.26727000  0.40378000  0.54161000  1
  H  H162  1  0.98329000  0.60690000  0.71731000  1
  H  H163  1  0.02486000  0.89246000  0.78465000  1
  H  H164  1  0.97486000  0.10761000  0.78469000  1
  H  H165  1  0.02428000  0.39044000  0.71473000  1
  H  H166  1  0.97474000  0.10765000  0.21530000  1
  H  H167  1  0.02430000  0.39045000  0.28527000  1
  H  H168  1  0.23411000  0.09375000  0.45359000  1
  H  H169  1  0.19538000  0.39899000  0.56179000  1
  H  H170  1  0.60761000  0.97489000  0.28468000  1
  H  H171  1  0.89244000  0.02494000  0.21533000  1
  H  H172  1  0.71473000  0.47570000  0.10956000  1
  H  H173  1  0.10956000  0.52429000  0.71473000  1
  H  H174  1  0.78467000  0.52493000  0.39244000  1
  H  H175  1  0.39246000  0.47510000  0.78467000  1
  H  H176  1  0.71533000  0.52495000  0.89244000  1
  H  H177  1  0.10756000  0.47506000  0.28467000  1
  H  H178  1  0.78468000  0.47503000  0.60757000  1
  H  H179  1  0.39045000  0.52425000  0.21474000  1
  H  H180  1  0.71533000  0.97507000  0.60756000  1
  H  H181  1  0.78527000  0.02429000  0.89044000  1
  H  H182  1  0.39243000  0.97504000  0.71535000  1
  H  H183  1  0.10756000  0.02492000  0.78467000  1
  H  H184  1  0.43693000  0.72359000  0.99451000  1
  H  H185  1  0.07972000  0.79662000  0.06638000  1
  H  H186  1  0.93617000  0.22447000  0.99565000  1
  H  H187  1  0.58074000  0.29547000  0.06470000  1
  H  H188  1  0.43866000  0.28943000  0.98796000  1
  H  H189  1  0.09586000  0.26744000  0.04072000  1
  H  H190  1  0.93865000  0.78904000  0.98843000  1
  H  H191  1  0.59394000  0.76353000  0.04644000  1
  H  H192  1  0.78310000  0.89286000  0.01899000  1
  H  H193  1  0.71533000  0.89244000  0.47507000  1
  H  H194  1  0.71529000  0.60758000  0.97494000  1
  H  H195  1  0.78467000  0.60756000  0.52492000  1
  H  H196  1  0.39244000  0.78468000  0.47503000  1
  H  H197  1  0.21729000  0.89308000  0.98311000  1
  H  H198  1  0.10714000  0.71690000  0.51898000  1
  H  H199  1  0.28466000  0.60754000  0.02486000  1
  H  H200  1  0.39246000  0.21533000  0.52490000  1
  H  H201  1  0.28311000  0.39287000  0.01895000  1
  H  H202  1  0.10755000  0.28467000  0.47509000  1
  H  H203  1  0.21531000  0.10756000  0.97505000  1
  H  H204  1  0.71534000  0.10753000  0.52484000  1
  H  H205  1  0.71534000  0.39240000  0.97495000  1
  H  H206  1  0.78468000  0.39243000  0.47503000  1
  H  H207  1  0.78467000  0.10755000  0.02493000  1
  H  H208  1  0.49457000  0.06312000  0.72371000  1
  H  H209  1  0.43286000  0.08050000  0.70404000  1
  H  H210  1  0.45351000  0.09365000  0.76587000  1
  H  H211  1  0.56658000  0.91971000  0.70337000  1
  H  H212  1  0.54725000  0.90611000  0.76563000  1
  H  H213  1  0.50436000  0.93617000  0.72445000  1
  H  H214  1  0.06551000  0.91854000  0.20186000  1
  H  H215  1  0.04864000  0.90597000  0.26514000  1
  H  H216  1  0.00458000  0.93643000  0.22493000  1
  H  H217  1  0.21092000  0.48840000  0.56136000  1
  H  H218  1  0.24499000  0.43220000  0.61011000  1
  H  H219  1  0.26254000  0.48514000  0.58646000  1
  H  H220  1  0.28469000  0.97436000  0.39227000  1
  H  H221  1  0.26728000  0.54154000  0.40382000  1
  H  H222  1  0.22038000  0.50322000  0.43461000  1
  H  H223  1  0.19543000  0.56183000  0.39895000  1
  H  H224  1  0.76555000  0.04746000  0.40599000  1
  H  H225  1  0.72474000  0.00437000  0.43621000  1
  H  H226  1  0.70336000  0.06637000  0.42028000  1
  H  H227  1  0.27641000  0.00533000  0.56325000  1
  H  H228  1  0.29599000  0.06726000  0.58092000  1
  H  H229  1  0.23409000  0.04636000  0.59369000  1
  H  H230  1  0.61012000  0.43219000  0.75504000  1
  H  H231  1  0.58646000  0.48513000  0.73746000  1
  H  H232  1  0.56137000  0.48839000  0.78911000  1
  H  H233  1  0.32956000  0.02505000  0.22233000  1
  H  H234  1  0.40574000  0.05017000  0.23546000  1
  H  H235  1  0.43614000  0.00426000  0.27398000  1
  H  H236  1  0.41866000  0.06438000  0.29933000  1
  H  H237  1  0.56357000  0.50457000  0.22516000  1
  H  H238  1  0.58190000  0.56506000  0.20124000  1
  H  H239  1  0.59408000  0.54920000  0.26493000  1
  H  H240  1  0.56325000  0.00533000  0.72359000  1
  H  H241  1  0.58092000  0.06726000  0.70402000  1
  H  H242  1  0.59368000  0.04636000  0.76591000  1
  H  H243  1  0.45374000  0.23406000  0.09367000  1
  H  H244  1  0.49454000  0.27645000  0.06311000  1
  H  H245  1  0.43270000  0.29584000  0.08077000  1
  H  H246  1  0.97504000  0.78465000  0.10757000  1
  H  H247  1  0.98545000  0.23765000  0.58641000  1
  H  H248  1  0.98861000  0.28893000  0.56144000  1
  H  H249  1  0.93255000  0.25417000  0.60984000  1
  H  H250  1  0.50441000  0.22456000  0.56377000  1
  H  H251  1  0.56649000  0.20339000  0.58002000  1
  H  H252  1  0.54738000  0.26559000  0.59383000  1
  H  H253  1  0.01443000  0.26229000  0.08642000  1
  H  H254  1  0.01131000  0.21120000  0.06143000  1
  H  H255  1  0.06714000  0.24651000  0.10962000  1
  H  H256  1  0.00459000  0.72514000  0.56357000  1
  H  H257  1  0.06507000  0.70126000  0.58191000  1
  H  H258  1  0.04917000  0.76494000  0.59407000  1
  H  H259  1  0.56658000  0.79662000  0.41972000  1
  H  H260  1  0.54724000  0.73437000  0.40612000  1
  H  H261  1  0.50435000  0.77556000  0.43616000  1
  H  H262  1  0.54160000  0.40388000  0.73272000  1
  H  H263  1  0.56179000  0.39898000  0.80461000  1
  H  H264  1  0.50320000  0.43461000  0.77960000  1
  H  H265  1  0.49562000  0.56379000  0.77525000  1
  H  H266  1  0.45253000  0.59400000  0.73445000  1
  H  H267  1  0.43364000  0.57971000  0.79664000  1
  H  H268  1  0.99565000  0.56384000  0.27553000  1
  H  H269  1  0.95273000  0.59390000  0.23438000  1
  H  H270  1  0.93343000  0.58027000  0.29664000  1
  H  H271  1  0.27528000  0.50439000  0.93623000  1
  H  H272  1  0.23444000  0.54745000  0.90600000  1
  H  H273  1  0.29663000  0.56638000  0.92027000  1
  H  H274  1  0.20295000  0.06594000  0.07937000  1
  H  H275  1  0.22532000  0.00417000  0.06398000  1
  H  H276  1  0.26531000  0.04816000  0.09411000  1
  H  H277  1  0.79875000  0.93494000  0.08190000  1
  H  H278  1  0.77484000  0.99543000  0.06357000  1
  H  H279  1  0.73507000  0.95080000  0.09409000  1
  H  H280  1  0.29874000  0.43492000  0.08191000  1
  H  H281  1  0.27486000  0.49542000  0.06355000  1
  H  H282  1  0.23506000  0.45083000  0.09407000  1
  H  H283  1  0.26510000  0.95123000  0.90597000  1
  H  H284  1  0.20170000  0.93460000  0.91837000  1
  H  H285  1  0.22496000  0.99541000  0.93646000  1
  H  H286  1  0.91839000  0.56543000  0.70173000  1
  H  H287  1  0.93645000  0.50459000  0.72495000  1
  H  H288  1  0.90597000  0.54874000  0.76511000  1
  H  H289  1  0.16867000  0.97916000  0.27834000  1
  H  H290  1  0.10687000  0.98414000  0.21773000  1
  H  H291  1  0.90624000  0.45358000  0.23411000  1
  H  H292  1  0.91948000  0.43282000  0.29591000  1
  H  H293  1  0.93690000  0.49455000  0.27628000  1
  H  H294  1  0.90600000  0.95254000  0.73444000  1
  H  H295  1  0.92028000  0.93362000  0.79663000  1
  H  H296  1  0.93621000  0.99563000  0.77527000  1
  H  H297  1  0.54171000  0.26725000  0.40374000  1
  H  H298  1  0.56171000  0.19530000  0.39906000  1
  H  H299  1  0.50312000  0.22053000  0.43455000  1
  H  H300  1  0.04608000  0.26600000  0.90640000  1
  H  H301  1  0.06748000  0.20419000  0.91873000  1
  H  H302  1  0.00549000  0.22330000  0.93690000  1
  H  H303  1  0.02486000  0.71535000  0.39246000  1
  H  H304  1  0.45839000  0.23272000  0.90389000  1
  H  H305  1  0.43821000  0.30462000  0.89899000  1
  H  H306  1  0.49684000  0.27958000  0.93455000  1
  H  H307  1  0.95867000  0.73268000  0.90384000  1
  H  H308  1  0.93805000  0.80443000  0.89883000  1
  H  H309  1  0.99674000  0.77976000  0.93461000  1
  H  H310  1  0.95299000  0.23429000  0.40618000  1
  H  H311  1  0.93321000  0.29649000  0.41938000  1
  H  H312  1  0.99550000  0.27581000  0.43630000  1
  H  H313  1  0.43274000  0.70402000  0.08092000  1
  H  H314  1  0.49467000  0.72359000  0.06325000  1
  H  H315  1  0.45364000  0.76592000  0.09368000  1
  H  H316  1  0.14700000  0.03970000  0.16453000  1
  H  H317  1  0.33451000  0.03940000  0.35331000  1
  C  C318  1  0.68216000  0.24137000  0.48614000  1
  C  C319  1  0.64499000  0.20528000  0.48623000  1
  C  C320  1  0.59210000  0.22640000  0.46560000  1
  C  C321  1  0.31784000  0.75863000  0.48614000  1
  C  C322  1  0.35501000  0.79472000  0.48623000  1
  C  C323  1  0.31784000  0.25863000  0.98614000  1
  C  C324  1  0.35501000  0.29472000  0.98623000  1
  C  C325  1  0.40790000  0.27360000  0.96560000  1
  C  C326  1  0.81784000  0.75863000  0.98614000  1
  C  C327  1  0.85501000  0.79472000  0.98623000  1
  C  C328  1  0.90790000  0.77360000  0.96560000  1
  C  C329  1  0.31784000  0.24137000  0.51386000  1
  C  C330  1  0.35501000  0.20528000  0.51377000  1
  C  C331  1  0.68216000  0.75863000  0.51386000  1
  C  C332  1  0.64499000  0.79472000  0.51377000  1
  C  C333  1  0.59210000  0.77360000  0.53440000  1
  C  C334  1  0.68216000  0.25863000  0.01386000  1
  C  C335  1  0.64499000  0.29472000  0.01377000  1
  C  C336  1  0.59210000  0.27360000  0.03440000  1
  C  C337  1  0.18216000  0.75863000  0.01386000  1
  C  C338  1  0.14499000  0.79472000  0.01377000  1
  C  C339  1  0.09210000  0.77360000  0.03440000  1
  C  C340  1  0.48614000  0.18216000  0.74137000  1
  C  C341  1  0.48623000  0.14499000  0.70528000  1
  C  C342  1  0.46560000  0.09210000  0.72640000  1
  C  C343  1  0.98614000  0.68216000  0.74137000  1
  C  C344  1  0.98623000  0.64499000  0.70528000  1
  C  C345  1  0.98614000  0.18216000  0.24137000  1
  C  C346  1  0.98623000  0.14499000  0.20528000  1
  C  C347  1  0.48614000  0.81784000  0.25863000  1
  C  C348  1  0.48623000  0.85501000  0.29472000  1
  C  C349  1  0.51386000  0.31784000  0.24137000  1
  C  C350  1  0.51377000  0.35501000  0.20528000  1
  C  C351  1  0.51386000  0.81784000  0.74137000  1
  C  C352  1  0.51377000  0.85501000  0.70528000  1
  C  C353  1  0.53440000  0.90790000  0.72640000  1
  C  C354  1  0.01386000  0.31784000  0.74137000  1
  C  C355  1  0.01377000  0.35501000  0.70528000  1
  C  C356  1  0.01386000  0.81784000  0.24137000  1
  C  C357  1  0.01377000  0.85501000  0.20528000  1
  C  C358  1  0.03440000  0.90790000  0.22640000  1
  C  C359  1  0.24137000  0.48614000  0.68216000  1
  C  C360  1  0.20528000  0.48623000  0.64499000  1
  C  C361  1  0.22640000  0.46560000  0.59210000  1
  C  C362  1  0.74137000  0.48614000  0.18216000  1
  C  C363  1  0.70528000  0.48623000  0.14499000  1
  C  C364  1  0.74137000  0.98614000  0.68216000  1
  C  C365  1  0.70528000  0.98623000  0.64499000  1
  C  C366  1  0.25863000  0.98614000  0.31784000  1
  C  C367  1  0.29472000  0.98623000  0.35501000  1
  C  C368  1  0.24137000  0.51386000  0.31784000  1
  C  C369  1  0.20528000  0.51377000  0.35501000  1
  C  C370  1  0.22640000  0.53440000  0.40790000  1
  C  C371  1  0.74137000  0.51386000  0.81784000  1
  C  C372  1  0.70528000  0.51377000  0.85501000  1
  C  C373  1  0.74137000  0.01386000  0.31784000  1
  C  C374  1  0.70528000  0.01377000  0.35501000  1
  C  C375  1  0.72640000  0.03440000  0.40790000  1
  C  C376  1  0.25863000  0.01386000  0.68216000  1
  C  C377  1  0.29472000  0.01377000  0.64499000  1
  C  C378  1  0.27360000  0.03440000  0.59210000  1
  C  C379  1  0.74137000  0.18216000  0.51386000  1
  C  C380  1  0.70528000  0.14499000  0.51377000  1
  C  C381  1  0.75863000  0.81784000  0.01386000  1
  C  C382  1  0.79472000  0.85501000  0.01377000  1
  C  C383  1  0.25863000  0.31784000  0.01386000  1
  C  C384  1  0.29472000  0.35501000  0.01377000  1
  C  C385  1  0.25863000  0.81784000  0.51386000  1
  C  C386  1  0.29472000  0.85501000  0.51377000  1
  C  C387  1  0.27360000  0.90790000  0.53440000  1
  C  C388  1  0.24137000  0.81784000  0.98614000  1
  C  C389  1  0.20528000  0.85501000  0.98623000  1
  C  C390  1  0.74137000  0.31784000  0.98614000  1
  C  C391  1  0.70528000  0.35501000  0.98623000  1
  C  C392  1  0.74137000  0.81784000  0.48614000  1
  C  C393  1  0.70528000  0.85501000  0.48623000  1
  C  C394  1  0.25863000  0.18216000  0.48614000  1
  C  C395  1  0.29472000  0.14499000  0.48623000  1
  C  C396  1  0.27360000  0.09210000  0.46560000  1
  C  C397  1  0.68216000  0.48614000  0.75863000  1
  C  C398  1  0.64499000  0.48623000  0.79472000  1
  C  C399  1  0.59210000  0.46560000  0.77360000  1
  C  C400  1  0.68216000  0.98614000  0.25863000  1
  C  C401  1  0.64499000  0.98623000  0.29472000  1
  C  C402  1  0.18216000  0.48614000  0.25863000  1
  C  C403  1  0.14499000  0.48623000  0.29472000  1
  C  C404  1  0.31784000  0.98614000  0.74137000  1
  C  C405  1  0.35501000  0.98623000  0.70528000  1
  C  C406  1  0.31784000  0.01386000  0.25863000  1
  C  C407  1  0.35501000  0.01377000  0.29472000  1
  C  C408  1  0.40790000  0.03440000  0.27360000  1
  C  C409  1  0.68216000  0.51386000  0.24137000  1
  C  C410  1  0.64499000  0.51377000  0.20528000  1
  C  C411  1  0.59210000  0.53440000  0.22640000  1
  C  C412  1  0.68216000  0.01386000  0.74137000  1
  C  C413  1  0.64499000  0.01377000  0.70528000  1
  C  C414  1  0.59210000  0.03440000  0.72640000  1
  C  C415  1  0.18216000  0.51386000  0.74137000  1
  C  C416  1  0.14499000  0.51377000  0.70528000  1
  C  C417  1  0.48614000  0.75863000  0.68216000  1
  C  C418  1  0.48623000  0.79472000  0.64499000  1
  C  C419  1  0.48614000  0.25863000  0.18216000  1
  C  C420  1  0.48623000  0.29472000  0.14499000  1
  C  C421  1  0.46560000  0.27360000  0.09210000  1
  C  C422  1  0.98614000  0.75863000  0.18216000  1
  C  C423  1  0.98623000  0.79472000  0.14499000  1
  C  C424  1  0.98614000  0.25863000  0.68216000  1
  C  C425  1  0.98623000  0.29472000  0.64499000  1
  C  C426  1  0.96560000  0.27360000  0.59210000  1
  C  C427  1  0.51386000  0.24137000  0.68216000  1
  C  C428  1  0.51377000  0.20528000  0.64499000  1
  C  C429  1  0.53440000  0.22640000  0.59210000  1
  C  C430  1  0.01386000  0.24137000  0.18216000  1
  C  C431  1  0.01377000  0.20528000  0.14499000  1
  C  C432  1  0.03440000  0.22640000  0.09210000  1
  C  C433  1  0.01386000  0.74137000  0.68216000  1
  C  C434  1  0.01377000  0.70528000  0.64499000  1
  C  C435  1  0.03440000  0.72640000  0.59210000  1
  C  C436  1  0.51386000  0.75863000  0.31784000  1
  C  C437  1  0.51377000  0.79472000  0.35501000  1
  C  C438  1  0.53440000  0.77360000  0.40790000  1
  C  C439  1  0.81784000  0.25863000  0.51386000  1
  C  C440  1  0.85501000  0.29472000  0.51377000  1
  C  C441  1  0.90790000  0.27360000  0.53440000  1
  C  C442  1  0.68216000  0.74137000  0.01386000  1
  C  C443  1  0.64499000  0.70528000  0.01377000  1
  C  C444  1  0.59210000  0.72640000  0.03440000  1
  C  C445  1  0.18216000  0.24137000  0.01386000  1
  C  C446  1  0.14499000  0.20528000  0.01377000  1
  C  C447  1  0.09210000  0.22640000  0.03440000  1
  C  C448  1  0.18216000  0.74137000  0.51386000  1
  C  C449  1  0.14499000  0.70528000  0.51377000  1
  C  C450  1  0.18216000  0.25863000  0.48614000  1
  C  C451  1  0.14499000  0.29472000  0.48623000  1
  C  C452  1  0.31784000  0.74137000  0.98614000  1
  C  C453  1  0.35501000  0.70528000  0.98623000  1
  C  C454  1  0.40790000  0.72640000  0.96560000  1
  C  C455  1  0.81784000  0.24137000  0.98614000  1
  C  C456  1  0.85501000  0.20528000  0.98623000  1
  C  C457  1  0.90790000  0.22640000  0.96560000  1
  C  C458  1  0.81784000  0.74137000  0.48614000  1
  C  C459  1  0.85501000  0.70528000  0.48623000  1
  C  C460  1  0.90790000  0.72640000  0.46560000  1
  C  C461  1  0.51386000  0.31784000  0.75863000  1
  C  C462  1  0.51377000  0.35501000  0.79472000  1
  C  C463  1  0.53440000  0.40790000  0.77360000  1
  C  C464  1  0.01386000  0.31784000  0.25863000  1
  C  C465  1  0.01377000  0.35501000  0.29472000  1
  C  C466  1  0.01386000  0.81784000  0.75863000  1
  C  C467  1  0.01377000  0.85501000  0.79472000  1
  C  C468  1  0.51386000  0.68216000  0.24137000  1
  C  C469  1  0.51377000  0.64499000  0.20528000  1
  C  C470  1  0.48614000  0.68216000  0.75863000  1
  C  C471  1  0.48623000  0.64499000  0.79472000  1
  C  C472  1  0.46560000  0.59210000  0.77360000  1
  C  C473  1  0.48614000  0.18216000  0.25863000  1
  C  C474  1  0.48623000  0.14499000  0.29472000  1
  C  C475  1  0.98614000  0.68216000  0.25863000  1
  C  C476  1  0.98623000  0.64499000  0.29472000  1
  C  C477  1  0.96560000  0.59210000  0.27360000  1
  C  C478  1  0.98614000  0.18216000  0.75863000  1
  C  C479  1  0.98623000  0.14499000  0.79472000  1
  C  C480  1  0.75863000  0.51386000  0.31784000  1
  C  C481  1  0.79472000  0.51377000  0.35501000  1
  C  C482  1  0.75863000  0.01386000  0.81784000  1
  C  C483  1  0.79472000  0.01377000  0.85501000  1
  C  C484  1  0.25863000  0.51386000  0.81784000  1
  C  C485  1  0.29472000  0.51377000  0.85501000  1
  C  C486  1  0.27360000  0.53440000  0.90790000  1
  C  C487  1  0.24137000  0.01386000  0.18216000  1
  C  C488  1  0.20528000  0.01377000  0.14499000  1
  C  C489  1  0.22640000  0.03440000  0.09210000  1
  C  C490  1  0.75863000  0.48614000  0.68216000  1
  C  C491  1  0.79472000  0.48623000  0.64499000  1
  C  C492  1  0.75863000  0.98614000  0.18216000  1
  C  C493  1  0.79472000  0.98623000  0.14499000  1
  C  C494  1  0.77360000  0.96560000  0.09210000  1
  C  C495  1  0.25863000  0.48614000  0.18216000  1
  C  C496  1  0.29472000  0.48623000  0.14499000  1
  C  C497  1  0.27360000  0.46560000  0.09210000  1
  C  C498  1  0.24137000  0.98614000  0.81784000  1
  C  C499  1  0.20528000  0.98623000  0.85501000  1
  C  C500  1  0.22640000  0.96560000  0.90790000  1
  C  C501  1  0.75863000  0.31784000  0.48614000  1
  C  C502  1  0.79472000  0.35501000  0.48623000  1
  C  C503  1  0.24137000  0.68216000  0.48614000  1
  C  C504  1  0.20528000  0.64499000  0.48623000  1
  C  C505  1  0.22640000  0.59210000  0.46560000  1
  C  C506  1  0.24137000  0.18216000  0.98614000  1
  C  C507  1  0.20528000  0.14499000  0.98623000  1
  C  C508  1  0.74137000  0.68216000  0.98614000  1
  C  C509  1  0.70528000  0.64499000  0.98623000  1
  C  C510  1  0.75863000  0.68216000  0.51386000  1
  C  C511  1  0.79472000  0.64499000  0.51377000  1
  C  C512  1  0.75863000  0.18216000  0.01386000  1
  C  C513  1  0.79472000  0.14499000  0.01377000  1
  C  C514  1  0.25863000  0.68216000  0.01386000  1
  C  C515  1  0.29472000  0.64499000  0.01377000  1
  C  C516  1  0.24137000  0.31784000  0.51386000  1
  C  C517  1  0.20528000  0.35501000  0.51377000  1
  C  C518  1  0.22640000  0.40790000  0.53440000  1
  C  C519  1  0.31784000  0.51386000  0.24137000  1
  C  C520  1  0.35501000  0.51377000  0.20528000  1
  C  C521  1  0.81784000  0.51386000  0.74137000  1
  C  C522  1  0.85501000  0.51377000  0.70528000  1
  C  C523  1  0.90790000  0.53440000  0.72640000  1
  C  C524  1  0.81784000  0.01386000  0.24137000  1
  C  C525  1  0.85501000  0.01377000  0.20528000  1
  C  C526  1  0.18216000  0.01386000  0.75863000  1
  C  C527  1  0.14499000  0.01377000  0.79472000  1
  C  C528  1  0.18216000  0.98614000  0.24137000  1
  C  C529  1  0.14499000  0.98623000  0.20528000  1
  C  C530  1  0.31784000  0.48614000  0.75863000  1
  C  C531  1  0.35501000  0.48623000  0.79472000  1
  C  C532  1  0.81784000  0.48614000  0.25863000  1
  C  C533  1  0.85501000  0.48623000  0.29472000  1
  C  C534  1  0.90790000  0.46560000  0.27360000  1
  C  C535  1  0.81784000  0.98614000  0.75863000  1
  C  C536  1  0.85501000  0.98623000  0.79472000  1
  C  C537  1  0.90790000  0.96560000  0.77360000  1
  C  C538  1  0.51386000  0.24137000  0.31784000  1
  C  C539  1  0.51377000  0.20528000  0.35501000  1
  C  C540  1  0.53440000  0.22640000  0.40790000  1
  C  C541  1  0.51386000  0.74137000  0.81784000  1
  C  C542  1  0.51377000  0.70528000  0.85501000  1
  C  C543  1  0.01386000  0.24137000  0.81784000  1
  C  C544  1  0.01377000  0.20528000  0.85501000  1
  C  C545  1  0.03440000  0.22640000  0.90790000  1
  C  C546  1  0.01386000  0.74137000  0.31784000  1
  C  C547  1  0.01377000  0.70528000  0.35501000  1
  C  C548  1  0.48614000  0.25863000  0.81784000  1
  C  C549  1  0.48623000  0.29472000  0.85501000  1
  C  C550  1  0.46560000  0.27360000  0.90790000  1
  C  C551  1  0.98614000  0.75863000  0.81784000  1
  C  C552  1  0.98623000  0.79472000  0.85501000  1
  C  C553  1  0.96560000  0.77360000  0.90790000  1
  C  C554  1  0.98614000  0.25863000  0.31784000  1
  C  C555  1  0.98623000  0.29472000  0.35501000  1
  C  C556  1  0.96560000  0.27360000  0.40790000  1
  C  C557  1  0.48614000  0.74137000  0.18216000  1
  C  C558  1  0.48623000  0.70528000  0.14499000  1
  C  C559  1  0.46560000  0.72640000  0.09210000  1
  C  C560  1  0.61728000  0.11728000  0.50000000  1
  C  C561  1  0.65672000  0.15672000  0.50000000  1
  C  C562  1  0.73045000  0.23045000  0.50000000  1
  C  C563  1  0.61728000  0.61728000  0.00000000  1
  C  C564  1  0.65672000  0.65672000  0.00000000  1
  C  C565  1  0.73045000  0.73045000  0.00000000  1
  C  C566  1  0.38272000  0.88272000  0.50000000  1
  C  C567  1  0.34328000  0.84328000  0.50000000  1
  C  C568  1  0.26955000  0.76955000  0.50000000  1
  C  C569  1  0.38272000  0.38272000  0.00000000  1
  C  C570  1  0.34328000  0.34328000  0.00000000  1
  C  C571  1  0.26955000  0.26955000  0.00000000  1
  C  C572  1  0.38272000  0.11728000  0.50000000  1
  C  C573  1  0.34328000  0.15672000  0.50000000  1
  C  C574  1  0.26955000  0.23045000  0.50000000  1
  C  C575  1  0.38272000  0.61728000  0.00000000  1
  C  C576  1  0.34328000  0.65672000  0.00000000  1
  C  C577  1  0.26955000  0.73045000  0.00000000  1
  C  C578  1  0.61728000  0.88272000  0.50000000  1
  C  C579  1  0.65672000  0.84328000  0.50000000  1
  C  C580  1  0.73045000  0.76955000  0.50000000  1
  C  C581  1  0.61728000  0.38272000  0.00000000  1
  C  C582  1  0.65672000  0.34328000  0.00000000  1
  C  C583  1  0.73045000  0.26955000  0.00000000  1
  C  C584  1  0.50000000  0.61728000  0.11728000  1
  C  C585  1  0.50000000  0.65672000  0.15672000  1
  C  C586  1  0.50000000  0.73045000  0.23045000  1
  C  C587  1  0.00000000  0.61728000  0.61728000  1
  C  C588  1  0.00000000  0.65672000  0.65672000  1
  C  C589  1  0.00000000  0.73045000  0.73045000  1
  C  C590  1  0.50000000  0.38272000  0.88272000  1
  C  C591  1  0.50000000  0.34328000  0.84328000  1
  C  C592  1  0.50000000  0.26955000  0.76955000  1
  C  C593  1  0.00000000  0.38272000  0.38272000  1
  C  C594  1  0.00000000  0.34328000  0.34328000  1
  C  C595  1  0.00000000  0.26955000  0.26955000  1
  C  C596  1  0.50000000  0.38272000  0.11728000  1
  C  C597  1  0.50000000  0.34328000  0.15672000  1
  C  C598  1  0.50000000  0.26955000  0.23045000  1
  C  C599  1  0.00000000  0.38272000  0.61728000  1
  C  C600  1  0.00000000  0.34328000  0.65672000  1
  C  C601  1  0.00000000  0.26955000  0.73045000  1
  C  C602  1  0.50000000  0.61728000  0.88272000  1
  C  C603  1  0.50000000  0.65672000  0.84328000  1
  C  C604  1  0.50000000  0.73045000  0.76955000  1
  C  C605  1  0.00000000  0.61728000  0.38272000  1
  C  C606  1  0.00000000  0.65672000  0.34328000  1
  C  C607  1  0.00000000  0.73045000  0.26955000  1
  C  C608  1  0.11728000  0.50000000  0.61728000  1
  C  C609  1  0.15672000  0.50000000  0.65672000  1
  C  C610  1  0.23045000  0.50000000  0.73045000  1
  C  C611  1  0.11728000  0.00000000  0.11728000  1
  C  C612  1  0.15672000  0.00000000  0.15672000  1
  C  C613  1  0.23045000  0.00000000  0.23045000  1
  C  C614  1  0.88272000  0.50000000  0.38272000  1
  C  C615  1  0.84328000  0.50000000  0.34328000  1
  C  C616  1  0.76955000  0.50000000  0.26955000  1
  C  C617  1  0.88272000  0.00000000  0.88272000  1
  C  C618  1  0.84328000  0.00000000  0.84328000  1
  C  C619  1  0.76955000  0.00000000  0.76955000  1
  C  C620  1  0.11728000  0.50000000  0.38272000  1
  C  C621  1  0.15672000  0.50000000  0.34328000  1
  C  C622  1  0.23045000  0.50000000  0.26955000  1
  C  C623  1  0.11728000  0.00000000  0.88272000  1
  C  C624  1  0.15672000  0.00000000  0.84328000  1
  C  C625  1  0.23045000  0.00000000  0.76955000  1
  C  C626  1  0.88272000  0.50000000  0.61728000  1
  C  C627  1  0.84328000  0.50000000  0.65672000  1
  C  C628  1  0.76955000  0.50000000  0.73045000  1
  C  C629  1  0.88272000  0.00000000  0.11728000  1
  C  C630  1  0.84328000  0.00000000  0.15672000  1
  C  C631  1  0.76955000  0.00000000  0.23045000  1
  C  C632  1  0.11728000  0.61728000  0.50000000  1
  C  C633  1  0.15672000  0.65672000  0.50000000  1
  C  C634  1  0.23045000  0.73045000  0.50000000  1
  C  C635  1  0.11728000  0.11728000  0.00000000  1
  C  C636  1  0.15672000  0.15672000  0.00000000  1
  C  C637  1  0.23045000  0.23045000  0.00000000  1
  C  C638  1  0.88272000  0.38272000  0.50000000  1
  C  C639  1  0.84328000  0.34328000  0.50000000  1
  C  C640  1  0.76955000  0.26955000  0.50000000  1
  C  C641  1  0.88272000  0.88272000  0.00000000  1
  C  C642  1  0.84328000  0.84328000  0.00000000  1
  C  C643  1  0.76955000  0.76955000  0.00000000  1
  C  C644  1  0.11728000  0.38272000  0.50000000  1
  C  C645  1  0.15672000  0.34328000  0.50000000  1
  C  C646  1  0.23045000  0.26955000  0.50000000  1
  C  C647  1  0.11728000  0.88272000  0.00000000  1
  C  C648  1  0.15672000  0.84328000  0.00000000  1
  C  C649  1  0.23045000  0.76955000  0.00000000  1
  C  C650  1  0.88272000  0.61728000  0.50000000  1
  C  C651  1  0.84328000  0.65672000  0.50000000  1
  C  C652  1  0.76955000  0.73045000  0.50000000  1
  C  C653  1  0.88272000  0.11728000  0.00000000  1
  C  C654  1  0.84328000  0.15672000  0.00000000  1
  C  C655  1  0.76955000  0.23045000  0.00000000  1
  C  C656  1  0.61728000  0.50000000  0.88272000  1
  C  C657  1  0.65672000  0.50000000  0.84328000  1
  C  C658  1  0.73045000  0.50000000  0.76955000  1
  C  C659  1  0.61728000  0.00000000  0.38272000  1
  C  C660  1  0.65672000  0.00000000  0.34328000  1
  C  C661  1  0.73045000  0.00000000  0.26955000  1
  C  C662  1  0.38272000  0.50000000  0.11728000  1
  C  C663  1  0.34328000  0.50000000  0.15672000  1
  C  C664  1  0.26955000  0.50000000  0.23045000  1
  C  C665  1  0.38272000  0.00000000  0.61728000  1
  C  C666  1  0.34328000  0.00000000  0.65672000  1
  C  C667  1  0.26955000  0.00000000  0.73045000  1
  C  C668  1  0.38272000  0.50000000  0.88272000  1
  C  C669  1  0.34328000  0.50000000  0.84328000  1
  C  C670  1  0.26955000  0.50000000  0.76955000  1
  C  C671  1  0.38272000  0.00000000  0.38272000  1
  C  C672  1  0.34328000  0.00000000  0.34328000  1
  C  C673  1  0.26955000  0.00000000  0.26955000  1
  C  C674  1  0.61728000  0.50000000  0.11728000  1
  C  C675  1  0.65672000  0.50000000  0.15672000  1
  C  C676  1  0.73045000  0.50000000  0.23045000  1
  C  C677  1  0.61728000  0.00000000  0.61728000  1
  C  C678  1  0.65672000  0.00000000  0.65672000  1
  C  C679  1  0.73045000  0.00000000  0.73045000  1
  C  C680  1  0.50000000  0.11728000  0.38272000  1
  C  C681  1  0.50000000  0.15672000  0.34328000  1
  C  C682  1  0.50000000  0.23045000  0.26955000  1
  C  C683  1  0.00000000  0.11728000  0.88272000  1
  C  C684  1  0.00000000  0.15672000  0.84328000  1
  C  C685  1  0.00000000  0.23045000  0.76955000  1
  C  C686  1  0.50000000  0.88272000  0.61728000  1
  C  C687  1  0.50000000  0.84328000  0.65672000  1
  C  C688  1  0.50000000  0.76955000  0.73045000  1
  C  C689  1  0.00000000  0.88272000  0.11728000  1
  C  C690  1  0.00000000  0.84328000  0.15672000  1
  C  C691  1  0.00000000  0.76955000  0.23045000  1
  C  C692  1  0.50000000  0.11728000  0.61728000  1
  C  C693  1  0.50000000  0.15672000  0.65672000  1
  C  C694  1  0.50000000  0.23045000  0.73045000  1
  C  C695  1  0.00000000  0.11728000  0.11728000  1
  C  C696  1  0.00000000  0.15672000  0.15672000  1
  C  C697  1  0.00000000  0.23045000  0.23045000  1
  C  C698  1  0.50000000  0.88272000  0.38272000  1
  C  C699  1  0.50000000  0.84328000  0.34328000  1
  C  C700  1  0.50000000  0.76955000  0.26955000  1
  C  C701  1  0.00000000  0.88272000  0.88272000  1
  C  C702  1  0.00000000  0.84328000  0.84328000  1
  C  C703  1  0.00000000  0.76955000  0.76955000  1
  O  O704  1  0.57240000  0.13173000  0.50000000  1
  O  O705  1  0.57240000  0.63173000  0.00000000  1
  O  O706  1  0.07240000  0.13173000  0.00000000  1
  O  O707  1  0.07240000  0.63173000  0.50000000  1
  O  O708  1  0.42760000  0.86827000  0.50000000  1
  O  O709  1  0.42760000  0.36827000  0.00000000  1
  O  O710  1  0.92760000  0.86827000  0.00000000  1
  O  O711  1  0.92760000  0.36827000  0.50000000  1
  O  O712  1  0.42760000  0.13173000  0.50000000  1
  O  O713  1  0.42760000  0.63173000  0.00000000  1
  O  O714  1  0.92760000  0.13173000  0.00000000  1
  O  O715  1  0.92760000  0.63173000  0.50000000  1
  O  O716  1  0.57240000  0.86827000  0.50000000  1
  O  O717  1  0.57240000  0.36827000  0.00000000  1
  O  O718  1  0.07240000  0.86827000  0.00000000  1
  O  O719  1  0.07240000  0.36827000  0.50000000  1
  O  O720  1  0.50000000  0.57240000  0.13173000  1
  O  O721  1  0.50000000  0.07240000  0.63173000  1
  O  O722  1  0.00000000  0.57240000  0.63173000  1
  O  O723  1  0.00000000  0.07240000  0.13173000  1
  O  O724  1  0.50000000  0.42760000  0.86827000  1
  O  O725  1  0.50000000  0.92760000  0.36827000  1
  O  O726  1  0.00000000  0.42760000  0.36827000  1
  O  O727  1  0.00000000  0.92760000  0.86827000  1
  O  O728  1  0.50000000  0.42760000  0.13173000  1
  O  O729  1  0.50000000  0.92760000  0.63173000  1
  O  O730  1  0.00000000  0.42760000  0.63173000  1
  O  O731  1  0.00000000  0.92760000  0.13173000  1
  O  O732  1  0.50000000  0.57240000  0.86827000  1
  O  O733  1  0.50000000  0.07240000  0.36827000  1
  O  O734  1  0.00000000  0.57240000  0.36827000  1
  O  O735  1  0.00000000  0.07240000  0.86827000  1
  O  O736  1  0.13173000  0.50000000  0.57240000  1
  O  O737  1  0.13173000  0.00000000  0.07240000  1
  O  O738  1  0.63173000  0.50000000  0.07240000  1
  O  O739  1  0.63173000  0.00000000  0.57240000  1
  O  O740  1  0.86827000  0.50000000  0.42760000  1
  O  O741  1  0.86827000  0.00000000  0.92760000  1
  O  O742  1  0.36827000  0.50000000  0.92760000  1
  O  O743  1  0.36827000  0.00000000  0.42760000  1
  O  O744  1  0.13173000  0.50000000  0.42760000  1
  O  O745  1  0.13173000  0.00000000  0.92760000  1
  O  O746  1  0.63173000  0.50000000  0.92760000  1
  O  O747  1  0.63173000  0.00000000  0.42760000  1
  O  O748  1  0.86827000  0.50000000  0.57240000  1
  O  O749  1  0.86827000  0.00000000  0.07240000  1
  O  O750  1  0.36827000  0.50000000  0.07240000  1
  O  O751  1  0.36827000  0.00000000  0.57240000  1
  O  O752  1  0.13173000  0.57240000  0.50000000  1
  O  O753  1  0.13173000  0.07240000  0.00000000  1
  O  O754  1  0.63173000  0.57240000  0.00000000  1
  O  O755  1  0.63173000  0.07240000  0.50000000  1
  O  O756  1  0.86827000  0.42760000  0.50000000  1
  O  O757  1  0.86827000  0.92760000  0.00000000  1
  O  O758  1  0.36827000  0.42760000  0.00000000  1
  O  O759  1  0.36827000  0.92760000  0.50000000  1
  O  O760  1  0.13173000  0.42760000  0.50000000  1
  O  O761  1  0.13173000  0.92760000  0.00000000  1
  O  O762  1  0.63173000  0.42760000  0.00000000  1
  O  O763  1  0.63173000  0.92760000  0.50000000  1
  O  O764  1  0.86827000  0.57240000  0.50000000  1
  O  O765  1  0.86827000  0.07240000  0.00000000  1
  O  O766  1  0.36827000  0.57240000  0.00000000  1
  O  O767  1  0.36827000  0.07240000  0.50000000  1
  O  O768  1  0.57240000  0.50000000  0.86827000  1
  O  O769  1  0.57240000  0.00000000  0.36827000  1
  O  O770  1  0.07240000  0.50000000  0.36827000  1
  O  O771  1  0.07240000  0.00000000  0.86827000  1
  O  O772  1  0.42760000  0.50000000  0.13173000  1
  O  O773  1  0.42760000  0.00000000  0.63173000  1
  O  O774  1  0.92760000  0.50000000  0.63173000  1
  O  O775  1  0.92760000  0.00000000  0.13173000  1
  O  O776  1  0.42760000  0.50000000  0.86827000  1
  O  O777  1  0.42760000  0.00000000  0.36827000  1
  O  O778  1  0.92760000  0.50000000  0.36827000  1
  O  O779  1  0.92760000  0.00000000  0.86827000  1
  O  O780  1  0.57240000  0.50000000  0.13173000  1
  O  O781  1  0.57240000  0.00000000  0.63173000  1
  O  O782  1  0.07240000  0.50000000  0.63173000  1
  O  O783  1  0.07240000  0.00000000  0.13173000  1
  O  O784  1  0.50000000  0.13173000  0.42760000  1
  O  O785  1  0.50000000  0.63173000  0.92760000  1
  O  O786  1  0.00000000  0.13173000  0.92760000  1
  O  O787  1  0.00000000  0.63173000  0.42760000  1
  O  O788  1  0.50000000  0.86827000  0.57240000  1
  O  O789  1  0.50000000  0.36827000  0.07240000  1
  O  O790  1  0.00000000  0.86827000  0.07240000  1
  O  O791  1  0.00000000  0.36827000  0.57240000  1
  O  O792  1  0.50000000  0.13173000  0.57240000  1
  O  O793  1  0.50000000  0.63173000  0.07240000  1
  O  O794  1  0.00000000  0.13173000  0.07240000  1
  O  O795  1  0.00000000  0.63173000  0.57240000  1
  O  O796  1  0.50000000  0.86827000  0.42760000  1
  O  O797  1  0.50000000  0.36827000  0.92760000  1
  O  O798  1  0.00000000  0.86827000  0.92760000  1
  O  O799  1  0.00000000  0.36827000  0.42760000  1
  O  O800  1  0.44823000  0.05177000  0.44823000  1
  O  O801  1  0.55177000  0.94823000  0.44823000  1
  O  O802  1  0.05177000  0.44823000  0.44823000  1
  O  O803  1  0.55177000  0.05177000  0.55177000  1
  O  O804  1  0.05177000  0.05177000  0.05177000  1
  O  O805  1  0.44823000  0.94823000  0.55177000  1
  O  O806  1  0.44823000  0.44823000  0.05177000  1
  O  O807  1  0.44823000  0.55177000  0.94823000  1
  O  O808  1  0.55177000  0.55177000  0.05177000  1
  O  O809  1  0.55177000  0.44823000  0.94823000  1
  O  O810  1  0.05177000  0.94823000  0.94823000  1
  O  O811  1  0.94823000  0.44823000  0.55177000  1
  O  O812  1  0.94823000  0.94823000  0.05177000  1
  O  O813  1  0.05177000  0.55177000  0.55177000  1
  O  O814  1  0.94823000  0.55177000  0.44823000  1
  O  O815  1  0.94823000  0.05177000  0.94823000  1
  O  O816  1  0.05177000  0.44823000  0.55177000  1
  O  O817  1  0.05177000  0.94823000  0.05177000  1
  O  O818  1  0.94823000  0.55177000  0.55177000  1
  O  O819  1  0.94823000  0.05177000  0.05177000  1
  O  O820  1  0.44823000  0.55177000  0.05177000  1
  O  O821  1  0.44823000  0.05177000  0.55177000  1
  O  O822  1  0.05177000  0.55177000  0.44823000  1
  O  O823  1  0.05177000  0.05177000  0.94823000  1
  O  O824  1  0.94823000  0.44823000  0.44823000  1
  O  O825  1  0.94823000  0.94823000  0.94823000  1
  O  O826  1  0.44823000  0.44823000  0.94823000  1
  O  O827  1  0.55177000  0.44823000  0.05177000  1
  O  O828  1  0.55177000  0.55177000  0.94823000  1
  O  O829  1  0.55177000  0.05177000  0.44823000  1
  O  O830  1  0.44823000  0.94823000  0.44823000  1
  O  O831  1  0.55177000  0.94823000  0.55177000  1
