# generated using pymatgen
data_Zr3H36(C33O10)2
_symmetry_space_group_name_H-M   'P 1'
_cell_length_a   26.81670000
_cell_length_b   26.81670000
_cell_length_c   26.81670000
_cell_angle_alpha   90.00000000
_cell_angle_beta   90.00000000
_cell_angle_gamma   90.00000000
_symmetry_Int_Tables_number   1
_chemical_formula_structural   Zr3H36(C33O10)2
_chemical_formula_sum   'Zr24 H288 C528 O160'
_cell_volume   19284.83825141
_cell_formula_units_Z   8
loop_
 _symmetry_equiv_pos_site_id
 _symmetry_equiv_pos_as_xyz
  1  'x, y, z'
loop_
 _atom_site_type_symbol
 _atom_site_label
 _atom_site_symmetry_multiplicity
 _atom_site_fract_x
 _atom_site_fract_y
 _atom_site_fract_z
 _atom_site_occupancy
  Zr  Zr0  1  0.50000000  0.50000000  0.59218000  1
  Zr  Zr1  1  0.50000000  0.00000000  0.09218000  1
  Zr  Zr2  1  0.00000000  0.50000000  0.09218000  1
  Zr  Zr3  1  0.00000000  0.00000000  0.59218000  1
  Zr  Zr4  1  0.50000000  0.50000000  0.40782000  1
  Zr  Zr5  1  0.50000000  0.00000000  0.90782000  1
  Zr  Zr6  1  0.00000000  0.50000000  0.90782000  1
  Zr  Zr7  1  0.00000000  0.00000000  0.40782000  1
  Zr  Zr8  1  0.59218000  0.50000000  0.50000000  1
  Zr  Zr9  1  0.59218000  0.00000000  0.00000000  1
  Zr  Zr10  1  0.09218000  0.50000000  0.00000000  1
  Zr  Zr11  1  0.09218000  0.00000000  0.50000000  1
  Zr  Zr12  1  0.40782000  0.50000000  0.50000000  1
  Zr  Zr13  1  0.40782000  0.00000000  0.00000000  1
  Zr  Zr14  1  0.90782000  0.50000000  0.00000000  1
  Zr  Zr15  1  0.90782000  0.00000000  0.50000000  1
  Zr  Zr16  1  0.50000000  0.59218000  0.50000000  1
  Zr  Zr17  1  0.50000000  0.09218000  0.00000000  1
  Zr  Zr18  1  0.00000000  0.59218000  0.00000000  1
  Zr  Zr19  1  0.00000000  0.09218000  0.50000000  1
  Zr  Zr20  1  0.50000000  0.40782000  0.50000000  1
  Zr  Zr21  1  0.50000000  0.90782000  0.00000000  1
  Zr  Zr22  1  0.00000000  0.40782000  0.00000000  1
  Zr  Zr23  1  0.00000000  0.90782000  0.50000000  1
  H  H24  1  0.70727000  0.55145000  0.04557000  1
  H  H25  1  0.65598000  0.62158000  0.07556000  1
  H  H26  1  0.78802000  0.56478000  0.01227000  1
  H  H27  1  0.68721000  0.70727000  0.06953000  1
  H  H28  1  0.60966000  0.74728000  0.86992000  1
  H  H29  1  0.68353000  0.69280000  0.87727000  1
  H  H30  1  0.59813000  0.81758000  0.92687000  1
  H  H31  1  0.74503000  0.70704000  0.94254000  1
  H  H32  1  0.83802000  0.78521000  0.01243000  1
  H  H33  1  0.89588000  0.71735000  0.00064000  1
  H  H34  1  0.75790000  0.82090000  0.08163000  1
  H  H35  1  0.69116000  0.87975000  0.06866000  1
  H  H36  1  0.63217000  0.32776000  0.68294000  1
  H  H37  1  0.69434000  0.32679000  0.75100000  1
  H  H38  1  0.61266000  0.40519000  0.63922000  1
  H  H39  1  0.73715000  0.40323000  0.77587000  1
  H  H40  1  0.73480000  0.57349000  0.71696000  1
  H  H41  1  0.67211000  0.57489000  0.65080000  1
  H  H42  1  0.72383000  0.53366000  0.82426000  1
  H  H43  1  0.78979000  0.53461000  0.88624000  1
  H  H44  1  0.94187000  0.41439000  0.72254000  1
  H  H45  1  0.87454000  0.41632000  0.66001000  1
  H  H46  1  0.92949000  0.44730000  0.80403000  1
  H  H47  1  0.79438000  0.45362000  0.67988000  1
  H  H48  1  0.70356000  0.10666000  0.83528000  1
  H  H49  1  0.77278000  0.16704000  0.83313000  1
  H  H50  1  0.65003000  0.09985000  0.90849000  1
  H  H51  1  0.78788000  0.22280000  0.90360000  1
  H  H52  1  0.75413000  0.42406000  0.86860000  1
  H  H53  1  0.68718000  0.36134000  0.87086000  1
  H  H54  1  0.82727000  0.41572000  0.92148000  1
  H  H55  1  0.69297000  0.28949000  0.92621000  1
  H  H56  1  0.70445000  0.24982000  0.05937000  1
  H  H57  1  0.63806000  0.18902000  0.06423000  1
  H  H58  1  0.81647000  0.23015000  0.04278000  1
  H  H59  1  0.87786000  0.29578000  0.04505000  1
  H  H60  1  0.48766000  0.66926000  0.78054000  1
  H  H61  1  0.48426000  0.60724000  0.71515000  1
  H  H62  1  0.56868000  0.78077000  0.55063000  1
  H  H63  1  0.55160000  0.84635000  0.61298000  1
  H  H64  1  0.55581000  0.69432000  0.57040000  1
  H  H65  1  0.52234000  0.82433000  0.69613000  1
  H  H66  1  0.67208000  0.87125000  0.81728000  1
  H  H67  1  0.67843000  0.80043000  0.75859000  1
  H  H68  1  0.59306000  0.89108000  0.85746000  1
  H  H69  1  0.60507000  0.75026000  0.73853000  1
  H  H70  1  0.43198000  0.75434000  0.78947000  1
  H  H71  1  0.42793000  0.81962000  0.85278000  1
  H  H72  1  0.11044000  0.74207000  0.86537000  1
  H  H73  1  0.17507000  0.80586000  0.87877000  1
  H  H74  1  0.10010000  0.67311000  0.92340000  1
  H  H75  1  0.23013000  0.80152000  0.95072000  1
  H  H76  1  0.26226000  0.91661000  0.14563000  1
  H  H77  1  0.20765000  0.84386000  0.15782000  1
  H  H78  1  0.32486000  0.91686000  0.07962000  1
  H  H79  1  0.21507000  0.77082000  0.10421000  1
  H  H80  1  0.25714000  0.67947000  0.08090000  1
  H  H81  1  0.19011000  0.61843000  0.06987000  1
  H  H82  1  0.31505000  0.72882000  0.96155000  1
  H  H83  1  0.37298000  0.79775000  0.95151000  1
  H  H84  1  0.66838000  0.22097000  0.52973000  1
  H  H85  1  0.60797000  0.28829000  0.53038000  1
  H  H86  1  0.78097000  0.43944000  0.42250000  1
  H  H87  1  0.84432000  0.37476000  0.43610000  1
  H  H88  1  0.69461000  0.42494000  0.44531000  1
  H  H89  1  0.82173000  0.29515000  0.47296000  1
  H  H90  1  0.84314000  0.16445000  0.32576000  1
  H  H91  1  0.76754000  0.21713000  0.32486000  1
  H  H92  1  0.87945000  0.13679000  0.40461000  1
  H  H93  1  0.72867000  0.24375000  0.40299000  1
  H  H94  1  0.76645000  0.21845000  0.57728000  1
  H  H95  1  0.83472000  0.15801000  0.57775000  1
  H  H96  1  0.86307000  0.07903000  0.73851000  1
  H  H97  1  0.87012000  0.13580000  0.81038000  1
  H  H98  1  0.91668000  0.08890000  0.66577000  1
  H  H99  1  0.93134000  0.20345000  0.80937000  1
  H  H100  1  0.82470000  0.36142000  0.82514000  1
  H  H101  1  0.82405000  0.30949000  0.74941000  1
  H  H102  1  0.90231000  0.37633000  0.87107000  1
  H  H103  1  0.90087000  0.26894000  0.72064000  1
  H  H104  1  0.05170000  0.26163000  0.68811000  1
  H  H105  1  0.05403000  0.19722000  0.62790000  1
  H  H106  1  0.07207000  0.26262000  0.78305000  1
  H  H107  1  0.07163000  0.32588000  0.84665000  1
  H  H108  1  0.22370000  0.57507000  0.55063000  1
  H  H109  1  0.15501000  0.55040000  0.60692000  1
  H  H110  1  0.30940000  0.56140000  0.57435000  1
  H  H111  1  0.17321000  0.51411000  0.68856000  1
  H  H112  1  0.32475000  0.47578000  0.77777000  1
  H  H113  1  0.38957000  0.47647000  0.71446000  1
  H  H114  1  0.23772000  0.42456000  0.78698000  1
  H  H115  1  0.17479000  0.42464000  0.85287000  1
  H  H116  1  0.12757000  0.66841000  0.80897000  1
  H  H117  1  0.19525000  0.67018000  0.74651000  1
  H  H118  1  0.11035000  0.59273000  0.85631000  1
  H  H119  1  0.24552000  0.59637000  0.73070000  1
  H  H120  1  0.29640000  0.24738000  0.07070000  1
  H  H121  1  0.36102000  0.18470000  0.06843000  1
  H  H122  1  0.28031000  0.32740000  0.00832000  1
  H  H123  1  0.21747000  0.39223000  0.00678000  1
  H  H124  1  0.29477000  0.11391000  0.83802000  1
  H  H125  1  0.23398000  0.18269000  0.83474000  1
  H  H126  1  0.34582000  0.10031000  0.91173000  1
  H  H127  1  0.22262000  0.23750000  0.90622000  1
  H  H128  1  0.04728000  0.21180000  0.94642000  1
  H  H129  1  0.10699000  0.14771000  0.97518000  1
  H  H130  1  0.06897000  0.29947000  0.94938000  1
  H  H131  1  0.19029000  0.17179000  0.00310000  1
  H  H132  1  0.28044000  0.26833000  0.42406000  1
  H  H133  1  0.34133000  0.33615000  0.42286000  1
  H  H134  1  0.34206000  0.34123000  0.67500000  1
  H  H135  1  0.28137000  0.27185000  0.67642000  1
  H  H136  1  0.37233000  0.37473000  0.59596000  1
  H  H137  1  0.25095000  0.23524000  0.59873000  1
  H  H138  1  0.05480000  0.28602000  0.56387000  1
  H  H139  1  0.12096000  0.34874000  0.55206000  1
  H  H140  1  0.06919000  0.20021000  0.54548000  1
  H  H141  1  0.20293000  0.32410000  0.52246000  1
  H  H142  1  0.28063000  0.16858000  0.47927000  1
  H  H143  1  0.21408000  0.10751000  0.47815000  1
  H  H144  1  0.43294000  0.11893000  0.74643000  1
  H  H145  1  0.37637000  0.10793000  0.67456000  1
  H  H146  1  0.14446000  0.17675000  0.66263000  1
  H  H147  1  0.20521000  0.18112000  0.73176000  1
  H  H148  1  0.41650000  0.07664000  0.82486000  1
  H  H149  1  0.30182000  0.05634000  0.68222000  1
  H  H150  1  0.12018000  0.09648000  0.62736000  1
  H  H151  1  0.24283000  0.10539000  0.76515000  1
  H  H152  1  0.42464000  0.74714000  0.62737000  1
  H  H153  1  0.36346000  0.81555000  0.62168000  1
  H  H154  1  0.41422000  0.67196000  0.57809000  1
  H  H155  1  0.29133000  0.80909000  0.56651000  1
  H  H156  1  0.23142000  0.68270000  0.45260000  1
  H  H157  1  0.29610000  0.61884000  0.45180000  1
  H  H158  1  0.24660000  0.79261000  0.43118000  1
  H  H159  1  0.18310000  0.85814000  0.42956000  1
  H  H160  1  0.12094000  0.80151000  0.66732000  1
  H  H161  1  0.17848000  0.73040000  0.66545000  1
  H  H162  1  0.10794000  0.85338000  0.59328000  1
  H  H163  1  0.22675000  0.71180000  0.59078000  1
  H  H164  1  0.57048000  0.18537000  0.74172000  1
  H  H165  1  0.56708000  0.12508000  0.81001000  1
  H  H166  1  0.35473000  0.23299000  0.89348000  1
  H  H167  1  0.35383000  0.28757000  0.81981000  1
  H  H168  1  0.41923000  0.16970000  0.90400000  1
  H  H169  1  0.42003000  0.28235000  0.75777000  1
  H  H170  1  0.52711000  0.44693000  0.79662000  1
  H  H171  1  0.54587000  0.37524000  0.85081000  1
  H  H172  1  0.50436000  0.43585000  0.71230000  1
  H  H173  1  0.53987000  0.29056000  0.81891000  1
  H  H174  1  0.49241000  0.21662000  0.66347000  1
  H  H175  1  0.48893000  0.28428000  0.60417000  1
  H  H176  1  0.03653000  0.45419000  0.28992000  1
  H  H177  1  0.00720000  0.39272000  0.35186000  1
  H  H178  1  0.04248000  0.43264000  0.20321000  1
  H  H179  1  0.98657000  0.30796000  0.32614000  1
  H  H180  1  0.15154000  0.22127000  0.40073000  1
  H  H181  1  0.15631000  0.28003000  0.32998000  1
  H  H182  1  0.08233000  0.16372000  0.40808000  1
  H  H183  1  0.08981000  0.28336000  0.26816000  1
  H  H184  1  0.99416000  0.21868000  0.17060000  1
  H  H185  1  0.99433000  0.28298000  0.10708000  1
  H  H186  1  0.93357000  0.19540000  0.24577000  1
  H  H187  1  0.93448000  0.13050000  0.30954000  1
  H  H188  1  0.22646000  0.08614000  0.06080000  1
  H  H189  1  0.15820000  0.06100000  0.11744000  1
  H  H190  1  0.31235000  0.06554000  0.08038000  1
  H  H191  1  0.17681000  0.01943000  0.19641000  1
  H  H192  1  0.12230000  0.16146000  0.28930000  1
  H  H193  1  0.20387000  0.16944000  0.24899000  1
  H  H194  1  0.10065000  0.08718000  0.33791000  1
  H  H195  1  0.25978000  0.09754000  0.24464000  1
  H  H196  1  0.22537000  0.96593000  0.81847000  1
  H  H197  1  0.28913000  0.96264000  0.88289000  1
  H  H198  1  0.23279000  0.93019000  0.72179000  1
  H  H199  1  0.16825000  0.92570000  0.65774000  1
  H  H200  1  0.32994000  0.96129000  0.27586000  1
  H  H201  1  0.39082000  0.96289000  0.20884000  1
  H  H202  1  0.24558000  0.92400000  0.29871000  1
  H  H203  1  0.17783000  0.92585000  0.35988000  1
  H  H204  1  0.26166000  0.43767000  0.18486000  1
  H  H205  1  0.19446000  0.43899000  0.12355000  1
  H  H206  1  0.09582000  0.64163000  0.23758000  1
  H  H207  1  0.16815000  0.64476000  0.29386000  1
  H  H208  1  0.09118000  0.57997000  0.17098000  1
  H  H209  1  0.23481000  0.58345000  0.28669000  1
  H  H210  1  0.20331000  0.48517000  0.44931000  1
  H  H211  1  0.14843000  0.46361000  0.37883000  1
  H  H212  1  0.28774000  0.50790000  0.43628000  1
  H  H213  1  0.17962000  0.46670000  0.29368000  1
  H  H214  1  0.33507000  0.51139000  0.21732000  1
  H  H215  1  0.39539000  0.51260000  0.28426000  1
  H  H216  1  0.15847000  0.70838000  0.11919000  1
  H  H217  1  0.16018000  0.76595000  0.19074000  1
  H  H218  1  0.08556000  0.65809000  0.10154000  1
  H  H219  1  0.08760000  0.77471000  0.24446000  1
  H  H220  1  0.05260000  0.94792000  0.21207000  1
  H  H221  1  0.02045000  0.88886000  0.14909000  1
  H  H222  1  0.04982000  0.92746000  0.29978000  1
  H  H223  1  0.98932000  0.80699000  0.17417000  1
  H  H224  1  0.32447000  0.14552000  0.16573000  1
  H  H225  1  0.32033000  0.21552000  0.22550000  1
  H  H226  1  0.40431000  0.11821000  0.13181000  1
  H  H227  1  0.39626000  0.25786000  0.25253000  1
  H  H228  1  0.57241000  0.23164000  0.22194000  1
  H  H229  1  0.57540000  0.16756000  0.15732000  1
  H  H230  1  0.52734000  0.32399000  0.22330000  1
  H  H231  1  0.52952000  0.38752000  0.28776000  1
  H  H232  1  0.40502000  0.23080000  0.44268000  1
  H  H233  1  0.41982000  0.16179000  0.38354000  1
  H  H234  1  0.43328000  0.31430000  0.42369000  1
  H  H235  1  0.46169000  0.17714000  0.30433000  1
  H  H236  1  0.53278000  0.82118000  0.27446000  1
  H  H237  1  0.53509000  0.88514000  0.21032000  1
  H  H238  1  0.39633000  0.73596000  0.06051000  1
  H  H239  1  0.41330000  0.66503000  0.11668000  1
  H  H240  1  0.42847000  0.81844000  0.07952000  1
  H  H241  1  0.46037000  0.67735000  0.19366000  1
  H  H242  1  0.32450000  0.64643000  0.33501000  1
  H  H243  1  0.32065000  0.71571000  0.27433000  1
  H  H244  1  0.40429000  0.61904000  0.36889000  1
  H  H245  1  0.39668000  0.75714000  0.24641000  1
  H  H246  1  0.57292000  0.73107000  0.27816000  1
  H  H247  1  0.57531000  0.66855000  0.34408000  1
  H  H248  1  0.67418000  0.17360000  0.14334000  1
  H  H249  1  0.74553000  0.17355000  0.20120000  1
  H  H250  1  0.63305000  0.09559000  0.12003000  1
  H  H251  1  0.77526000  0.09584000  0.23810000  1
  H  H252  1  0.73314000  0.10208000  0.43370000  1
  H  H253  1  0.66637000  0.09293000  0.37112000  1
  H  H254  1  0.81351000  0.06466000  0.42092000  1
  H  H255  1  0.68104000  0.04567000  0.29508000  1
  H  H256  1  0.92513000  0.69713000  0.25012000  1
  H  H257  1  0.92963000  0.63153000  0.18709000  1
  H  H258  1  0.98133000  0.71933000  0.33062000  1
  H  H259  1  0.98771000  0.78364000  0.39359000  1
  H  H260  1  0.72046000  0.92181000  0.22791000  1
  H  H261  1  0.65303000  0.92295000  0.16628000  1
  H  H262  1  0.82444000  0.95746000  0.22535000  1
  H  H263  1  0.88680000  0.95941000  0.29135000  1
  H  H264  1  0.87313000  0.84042000  0.71633000  1
  H  H265  1  0.80068000  0.84392000  0.77281000  1
  H  H266  1  0.89331000  0.91110000  0.66157000  1
  H  H267  1  0.74916000  0.91915000  0.77689000  1
  H  H268  1  0.79635000  0.98493000  0.95030000  1
  H  H269  1  0.85473000  0.01245000  0.88478000  1
  H  H270  1  0.70981000  0.97352000  0.93279000  1
  H  H271  1  0.82488000  0.02721000  0.80023000  1
  H  H272  1  0.75110000  0.08061000  0.69385000  1
  H  H273  1  0.81720000  0.07368000  0.63189000  1
  H  H274  1  0.66631000  0.02009000  0.71834000  1
  H  H275  1  0.60560000  0.01243000  0.78440000  1
  H  H276  1  0.76847000  0.43408000  0.22841000  1
  H  H277  1  0.83472000  0.42729000  0.16634000  1
  H  H278  1  0.77590000  0.47859000  0.32174000  1
  H  H279  1  0.71313000  0.47611000  0.38606000  1
  H  H280  1  0.84288000  0.67855000  0.14733000  1
  H  H281  1  0.78521000  0.68572000  0.21891000  1
  H  H282  1  0.87095000  0.59681000  0.11862000  1
  H  H283  1  0.75250000  0.61125000  0.25970000  1
  H  H284  1  0.55902000  0.61351000  0.24259000  1
  H  H285  1  0.61750000  0.60508000  0.17200000  1
  H  H286  1  0.57751000  0.57443000  0.32210000  1
  H  H287  1  0.69480000  0.55817000  0.18138000  1
  H  H288  1  0.94532000  0.71481000  0.43628000  1
  H  H289  1  0.88307000  0.64984000  0.45497000  1
  H  H290  1  0.92638000  0.80168000  0.44954000  1
  H  H291  1  0.80074000  0.67268000  0.48596000  1
  H  H292  1  0.71824000  0.82810000  0.52247000  1
  H  H293  1  0.78409000  0.89032000  0.52284000  1
  H  H294  1  0.71174000  0.73616000  0.57676000  1
  H  H295  1  0.64924000  0.66995000  0.57683000  1
  H  H296  1  0.67793000  0.64129000  0.32773000  1
  H  H297  1  0.73790000  0.71110000  0.32675000  1
  H  H298  1  0.63820000  0.61534000  0.40551000  1
  H  H299  1  0.75874000  0.75538000  0.40356000  1
  H  H300  1  0.85117000  0.76862000  0.60757000  1
  H  H301  1  0.85110000  0.71244000  0.68076000  1
  H  H302  1  0.91770000  0.82996000  0.59657000  1
  H  H303  1  0.91885000  0.71548000  0.74119000  1
  H  H304  1  0.96200000  0.55266000  0.70883000  1
  H  H305  1  0.99931000  0.61148000  0.64840000  1
  H  H306  1  0.95672000  0.57355000  0.79610000  1
  H  H307  1  0.02658000  0.69416000  0.67608000  1
  H  H308  1  0.07129000  0.81097000  0.75644000  1
  H  H309  1  0.06521000  0.87562000  0.69319000  1
  H  H310  1  0.02078000  0.78205000  0.83205000  1
  H  H311  1  0.01678000  0.71677000  0.89449000  1
  C  C312  1  0.49679000  0.68032000  0.74273000  1
  C  C313  1  0.49559000  0.64477000  0.70531000  1
  C  C314  1  0.44690000  0.21023000  0.21022000  1
  C  C315  1  0.44900000  0.17120000  0.17455000  1
  C  C316  1  0.35840000  0.16383000  0.17766000  1
  C  C317  1  0.35611000  0.20325000  0.21135000  1
  C  C318  1  0.40426000  0.14828000  0.15876000  1
  C  C319  1  0.39976000  0.22686000  0.22698000  1
  C  C320  1  0.95781000  0.69457000  0.22648000  1
  C  C321  1  0.95985000  0.65790000  0.18992000  1
  C  C322  1  0.95984000  0.18637000  0.73531000  1
  C  C323  1  0.95861000  0.15157000  0.69583000  1
  C  C324  1  0.89038000  0.10847000  0.73786000  1
  C  C325  1  0.89441000  0.14049000  0.77841000  1
  C  C326  1  0.92189000  0.11388000  0.69680000  1
  C  C327  1  0.92908000  0.17914000  0.77736000  1
  C  C328  1  0.51577000  0.81343000  0.23864000  1
  C  C329  1  0.51624000  0.85031000  0.20229000  1
  C  C330  1  0.00112000  0.32045000  0.24705000  1
  C  C331  1  0.01030000  0.35741000  0.21034000  1
  C  C332  1  0.02484000  0.41747000  0.27784000  1
  C  C333  1  0.00879000  0.38281000  0.31277000  1
  C  C334  1  0.02632000  0.40498000  0.22738000  1
  C  C335  1  0.99742000  0.33450000  0.29773000  1
  C  C336  1  0.03983000  0.81046000  0.73104000  1
  C  C337  1  0.03676000  0.84694000  0.69471000  1
  C  C338  1  0.53935000  0.18642000  0.76745000  1
  C  C339  1  0.53767000  0.15263000  0.80669000  1
  C  C340  1  0.70025000  0.45049000  0.72085000  1
  C  C341  1  0.66452000  0.45114000  0.68196000  1
  C  C342  1  0.65080000  0.36194000  0.69372000  1
  C  C343  1  0.68585000  0.36138000  0.73203000  1
  C  C344  1  0.63995000  0.40636000  0.66890000  1
  C  C345  1  0.71027000  0.40520000  0.74584000  1
  C  C346  1  0.70945000  0.95676000  0.21094000  1
  C  C347  1  0.67113000  0.95763000  0.17653000  1
  C  C348  1  0.23404000  0.46711000  0.18654000  1
  C  C349  1  0.19543000  0.46759000  0.15210000  1
  C  C350  1  0.25395000  0.51401000  0.67877000  1
  C  C351  1  0.29285000  0.52177000  0.64382000  1
  C  C352  1  0.23185000  0.55679000  0.58571000  1
  C  C353  1  0.19329000  0.54327000  0.61756000  1
  C  C354  1  0.28111000  0.54710000  0.59897000  1
  C  C355  1  0.20407000  0.52267000  0.66404000  1
  C  C356  1  0.25717000  0.01645000  0.18425000  1
  C  C357  1  0.29528000  0.02361000  0.14830000  1
  C  C358  1  0.23476000  0.06550000  0.09450000  1
  C  C359  1  0.19642000  0.05192000  0.12666000  1
  C  C360  1  0.28380000  0.05206000  0.10531000  1
  C  C361  1  0.20741000  0.02820000  0.17156000  1
  C  C362  1  0.79077000  0.55867000  0.21076000  1
  C  C363  1  0.82654000  0.55459000  0.17210000  1
  C  C364  1  0.82883000  0.64524000  0.16532000  1
  C  C365  1  0.79627000  0.64929000  0.20554000  1
  C  C366  1  0.84445000  0.59839000  0.14901000  1
  C  C367  1  0.77761000  0.60651000  0.22848000  1
  C  C368  1  0.77286000  0.04660000  0.69211000  1
  C  C369  1  0.81093000  0.04289000  0.65733000  1
  C  C370  1  0.26038000  0.98517000  0.81231000  1
  C  C371  1  0.29647000  0.98383000  0.84928000  1
  C  C372  1  0.72660000  0.19413000  0.94892000  1
  C  C373  1  0.68778000  0.15810000  0.95085000  1
  C  C374  1  0.71049000  0.13023000  0.86725000  1
  C  C375  1  0.74936000  0.16455000  0.86592000  1
  C  C376  1  0.68011000  0.12664000  0.90929000  1
  C  C377  1  0.75757000  0.19629000  0.90633000  1
  C  C378  1  0.19955000  0.73153000  0.97932000  1
  C  C379  1  0.16113000  0.69573000  0.97245000  1
  C  C380  1  0.13449000  0.73954000  0.89750000  1
  C  C381  1  0.17104000  0.77547000  0.90501000  1
  C  C382  1  0.12893000  0.70027000  0.93103000  1
  C  C383  1  0.20280000  0.77220000  0.94593000  1
  C  C384  1  0.31159000  0.73604000  0.53654000  1
  C  C385  1  0.34829000  0.69783000  0.53781000  1
  C  C386  1  0.39350000  0.74424000  0.60183000  1
  C  C387  1  0.35891000  0.78274000  0.59870000  1
  C  C388  1  0.38792000  0.70182000  0.57239000  1
  C  C389  1  0.31796000  0.77870000  0.56688000  1
  C  C390  1  0.30105000  0.22393000  0.03810000  1
  C  C391  1  0.33825000  0.18794000  0.03798000  1
  C  C392  1  0.82522000  0.74736000  0.01847000  1
  C  C393  1  0.85780000  0.70802000  0.01036000  1
  C  C394  1  0.67944000  0.25736000  0.51606000  1
  C  C395  1  0.64484000  0.29579000  0.51563000  1
  C  C396  1  0.29399000  0.28328000  0.45907000  1
  C  C397  1  0.32812000  0.32219000  0.45840000  1
  C  C398  1  0.81551000  0.75282000  0.48827000  1
  C  C399  1  0.85278000  0.78978000  0.48271000  1
  C  C400  1  0.90962000  0.72522000  0.45191000  1
  C  C401  1  0.87445000  0.68865000  0.46208000  1
  C  C402  1  0.89886000  0.77521000  0.46141000  1
  C  C403  1  0.82757000  0.70216000  0.47970000  1
  C  C404  1  0.31513000  0.03521000  0.75968000  1
  C  C405  1  0.35041000  0.03708000  0.79901000  1
  C  C406  1  0.40091000  0.09461000  0.74960000  1
  C  C407  1  0.36884000  0.08874000  0.70932000  1
  C  C408  1  0.39187000  0.06924000  0.79407000  1
  C  C409  1  0.32624000  0.05934000  0.71413000  1
  C  C410  1  0.71504000  0.53944000  0.70781000  1
  C  C411  1  0.67994000  0.54011000  0.66988000  1
  C  C412  1  0.71977000  0.04873000  0.20167000  1
  C  C413  1  0.67985000  0.04834000  0.16708000  1
  C  C414  1  0.68723000  0.13873000  0.15883000  1
  C  C415  1  0.72731000  0.13879000  0.19175000  1
  C  C416  1  0.66398000  0.09398000  0.14594000  1
  C  C417  1  0.74387000  0.09426000  0.21275000  1
  C  C418  1  0.20005000  0.54166000  0.22597000  1
  C  C419  1  0.15935000  0.54095000  0.19217000  1
  C  C420  1  0.12516000  0.61443000  0.23355000  1
  C  C421  1  0.16580000  0.61598000  0.26563000  1
  C  C422  1  0.12244000  0.57829000  0.19621000  1
  C  C423  1  0.20339000  0.58047000  0.26153000  1
  C  C424  1  0.31518000  0.48700000  0.74014000  1
  C  C425  1  0.35241000  0.48855000  0.70416000  1
  C  C426  1  0.32002000  0.97816000  0.24052000  1
  C  C427  1  0.35470000  0.97989000  0.20246000  1
  C  C428  1  0.78503000  0.46785000  0.21365000  1
  C  C429  1  0.82248000  0.46394000  0.17822000  1
  C  C430  1  0.79325000  0.96082000  0.72291000  1
  C  C431  1  0.83357000  0.95828000  0.68973000  1
  C  C432  1  0.85076000  0.87377000  0.71770000  1
  C  C433  1  0.80996000  0.87579000  0.74978000  1
  C  C434  1  0.86228000  0.91437000  0.68715000  1
  C  C435  1  0.78098000  0.91884000  0.75213000  1
  C  C436  1  0.46156000  0.22371000  0.79611000  1
  C  C437  1  0.46096000  0.19070000  0.83745000  1
  C  C438  1  0.38394000  0.22962000  0.86608000  1
  C  C439  1  0.38366000  0.26080000  0.82471000  1
  C  C440  1  0.42145000  0.19406000  0.87204000  1
  C  C441  1  0.42183000  0.25775000  0.78971000  1
  C  C442  1  0.52018000  0.74403000  0.68232000  1
  C  C443  1  0.52424000  0.70681000  0.64490000  1
  C  C444  1  0.55403000  0.77077000  0.58690000  1
  C  C445  1  0.54475000  0.80762000  0.62207000  1
  C  C446  1  0.54469000  0.72094000  0.59822000  1
  C  C447  1  0.52827000  0.79456000  0.66952000  1
  C  C448  1  0.53780000  0.21559000  0.20859000  1
  C  C449  1  0.53960000  0.17883000  0.17220000  1
  C  C450  1  0.04090000  0.72261000  0.20267000  1
  C  C451  1  0.04106000  0.68789000  0.16280000  1
  C  C452  1  0.12586000  0.71262000  0.14210000  1
  C  C453  1  0.12671000  0.74504000  0.18247000  1
  C  C454  1  0.08371000  0.68410000  0.13224000  1
  C  C455  1  0.08483000  0.74998000  0.21274000  1
  C  C456  1  0.02725000  0.23238000  0.69126000  1
  C  C457  1  0.02771000  0.19540000  0.65528000  1
  C  C458  1  0.47285000  0.75698000  0.18195000  1
  C  C459  1  0.46860000  0.79632000  0.14672000  1
  C  C460  1  0.41882000  0.74145000  0.09356000  1
  C  C461  1  0.42802000  0.70159000  0.12541000  1
  C  C462  1  0.43856000  0.78839000  0.10410000  1
  C  C463  1  0.45470000  0.70910000  0.16937000  1
  C  C464  1  0.99662000  0.25736000  0.18203000  1
  C  C465  1  0.99803000  0.29421000  0.14570000  1
  C  C466  1  0.96181000  0.77246000  0.70186000  1
  C  C467  1  0.96010000  0.80626000  0.66171000  1
  C  C468  1  0.88173000  0.76983000  0.63387000  1
  C  C469  1  0.88177000  0.73811000  0.67498000  1
  C  C470  1  0.92015000  0.80432000  0.62754000  1
  C  C471  1  0.92104000  0.73970000  0.70906000  1
  C  C472  1  0.70060000  0.22519000  0.03040000  1
  C  C473  1  0.66266000  0.18996000  0.03221000  1
  C  C474  1  0.23075000  0.68435000  0.05059000  1
  C  C475  1  0.19263000  0.64960000  0.04417000  1
  C  C476  1  0.74256000  0.31304000  0.48195000  1
  C  C477  1  0.70644000  0.35153000  0.47800000  1
  C  C478  1  0.77025000  0.40461000  0.43977000  1
  C  C479  1  0.80609000  0.36813000  0.44726000  1
  C  C480  1  0.72094000  0.39636000  0.45433000  1
  C  C481  1  0.79258000  0.32265000  0.46805000  1
  C  C482  1  0.26413000  0.68770000  0.47579000  1
  C  C483  1  0.30079000  0.65111000  0.47575000  1
  C  C484  1  0.27646000  0.19924000  0.95399000  1
  C  C485  1  0.31268000  0.16075000  0.95502000  1
  C  C486  1  0.28961000  0.13743000  0.87021000  1
  C  C487  1  0.25534000  0.17624000  0.86841000  1
  C  C488  1  0.31830000  0.12970000  0.91282000  1
  C  C489  1  0.24886000  0.20712000  0.90969000  1
  C  C490  1  0.75931000  0.68616000  0.03905000  1
  C  C491  1  0.79123000  0.64634000  0.02546000  1
  C  C492  1  0.72220000  0.58900000  0.04476000  1
  C  C493  1  0.69315000  0.62844000  0.06143000  1
  C  C494  1  0.77024000  0.59751000  0.02655000  1
  C  C495  1  0.71124000  0.67687000  0.05810000  1
  C  C496  1  0.29378000  0.28445000  0.55012000  1
  C  C497  1  0.32857000  0.32429000  0.54937000  1
  C  C498  1  0.32876000  0.32540000  0.64032000  1
  C  C499  1  0.29456000  0.28631000  0.64111000  1
  C  C500  1  0.34579000  0.34431000  0.59497000  1
  C  C501  1  0.27723000  0.26579000  0.59653000  1
  C  C502  1  0.75587000  0.81699000  0.51273000  1
  C  C503  1  0.79326000  0.85252000  0.51195000  1
  C  C504  1  0.51229000  0.31525000  0.25977000  1
  C  C505  1  0.51280000  0.35179000  0.29646000  1
  C  C506  1  0.55395000  0.79262000  0.78556000  1
  C  C507  1  0.55084000  0.83219000  0.82038000  1
  C  C508  1  0.63934000  0.84939000  0.80844000  1
  C  C509  1  0.64285000  0.80954000  0.77536000  1
  C  C510  1  0.59391000  0.86060000  0.83104000  1
  C  C511  1  0.60070000  0.78117000  0.76406000  1
  C  C512  1  0.03781000  0.28203000  0.79221000  1
  C  C513  1  0.03843000  0.31766000  0.82956000  1
  C  C514  1  0.00060000  0.81924000  0.25382000  1
  C  C515  1  0.01162000  0.85563000  0.29061000  1
  C  C516  1  0.03617000  0.91290000  0.22379000  1
  C  C517  1  0.01868000  0.87945000  0.18826000  1
  C  C518  1  0.03295000  0.90126000  0.27440000  1
  C  C519  1  0.00121000  0.83283000  0.20291000  1
  C  C520  1  0.44729000  0.70958000  0.28889000  1
  C  C521  1  0.44918000  0.67104000  0.32513000  1
  C  C522  1  0.35851000  0.66433000  0.32263000  1
  C  C523  1  0.35640000  0.70328000  0.28838000  1
  C  C524  1  0.40433000  0.64868000  0.34148000  1
  C  C525  1  0.40017000  0.72633000  0.27218000  1
  C  C526  1  0.00886000  0.68165000  0.75433000  1
  C  C527  1  0.99580000  0.64535000  0.79009000  1
  C  C528  1  0.97727000  0.58772000  0.72168000  1
  C  C529  1  0.99764000  0.62105000  0.68761000  1
  C  C530  1  0.97597000  0.59961000  0.77233000  1
  C  C531  1  0.01298000  0.66799000  0.70361000  1
  C  C532  1  0.96431000  0.19406000  0.27198000  1
  C  C533  1  0.96463000  0.15740000  0.30847000  1
  C  C534  1  0.51864000  0.31242000  0.74327000  1
  C  C535  1  0.51185000  0.35344000  0.71017000  1
  C  C536  1  0.52602000  0.40951000  0.78143000  1
  C  C537  1  0.53619000  0.36921000  0.81209000  1
  C  C538  1  0.51382000  0.40213000  0.73145000  1
  C  C539  1  0.53239000  0.32106000  0.79347000  1
  C  C540  1  0.25564000  0.48791000  0.31421000  1
  C  C541  1  0.28927000  0.49481000  0.35466000  1
  C  C542  1  0.21821000  0.48448000  0.41177000  1
  C  C543  1  0.18717000  0.47279000  0.37214000  1
  C  C544  1  0.26825000  0.49591000  0.40348000  1
  C  C545  1  0.20540000  0.47483000  0.32372000  1
  C  C546  1  0.75959000  0.51723000  0.81509000  1
  C  C547  1  0.79723000  0.51747000  0.85040000  1
  C  C548  1  0.75822000  0.02642000  0.31260000  1
  C  C549  1  0.79585000  0.02900000  0.34968000  1
  C  C550  1  0.73971000  0.08033000  0.40038000  1
  C  C551  1  0.70226000  0.07541000  0.36509000  1
  C  C552  1  0.78585000  0.05761000  0.39292000  1
  C  C553  1  0.71120000  0.04859000  0.32163000  1
  C  C554  1  0.73954000  0.49460000  0.31430000  1
  C  C555  1  0.70358000  0.49297000  0.35118000  1
  C  C556  1  0.74675000  0.01221000  0.81699000  1
  C  C557  1  0.71211000  0.00142000  0.85539000  1
  C  C558  1  0.78245000  0.99362000  0.91343000  1
  C  C559  1  0.81538000  0.00871000  0.87652000  1
  C  C560  1  0.73170000  0.98899000  0.90306000  1
  C  C561  1  0.79797000  0.01709000  0.82845000  1
  C  C562  1  0.21847000  0.45901000  0.79566000  1
  C  C563  1  0.18258000  0.45900000  0.83303000  1
  C  C564  1  0.22468000  0.95811000  0.30442000  1
  C  C565  1  0.18574000  0.95910000  0.33834000  1
  C  C566  1  0.20522000  0.05484000  0.71375000  1
  C  C567  1  0.16901000  0.05225000  0.67532000  1
  C  C568  1  0.16082000  0.14285000  0.67723000  1
  C  C569  1  0.19514000  0.14531000  0.71608000  1
  C  C570  1  0.14734000  0.09680000  0.65722000  1
  C  C571  1  0.21678000  0.10180000  0.73467000  1
  C  C572  1  0.31345000  0.75959000  0.98768000  1
  C  C573  1  0.34590000  0.79942000  0.98145000  1
  C  C574  1  0.81208000  0.26295000  0.01961000  1
  C  C575  1  0.84812000  0.30016000  0.02141000  1
  C  C576  1  0.70550000  0.76960000  0.97666000  1
  C  C577  1  0.66435000  0.80196000  0.97093000  1
  C  C578  1  0.63658000  0.75390000  0.89917000  1
  C  C579  1  0.67811000  0.72309000  0.90339000  1
  C  C580  1  0.63008000  0.79367000  0.93205000  1
  C  C581  1  0.71271000  0.73114000  0.94130000  1
  C  C582  1  0.17840000  0.25169000  0.99360000  1
  C  C583  1  0.14203000  0.28856000  0.98411000  1
  C  C584  1  0.08317000  0.22290000  0.96120000  1
  C  C585  1  0.11692000  0.18681000  0.97690000  1
  C  C586  1  0.09562000  0.27333000  0.96416000  1
  C  C587  1  0.16436000  0.20089000  0.99269000  1
  C  C588  1  0.22264000  0.79765000  0.46333000  1
  C  C589  1  0.18680000  0.83520000  0.46261000  1
  C  C590  1  0.78231000  0.20601000  0.45103000  1
  C  C591  1  0.82443000  0.17425000  0.45145000  1
  C  C592  1  0.82623000  0.17595000  0.36054000  1
  C  C593  1  0.78361000  0.20561000  0.36006000  1
  C  C594  1  0.84670000  0.16039000  0.40576000  1
  C  C595  1  0.76177000  0.22071000  0.40481000  1
  C  C596  1  0.70173000  0.71846000  0.54183000  1
  C  C597  1  0.66666667  0.68064000  0.54194000  1
  C  C598  1  0.18520000  0.24472000  0.51575000  1
  C  C599  1  0.14635000  0.20866000  0.51886000  1
  C  C600  1  0.09081000  0.27472000  0.54951000  1
  C  C601  1  0.12806000  0.31000000  0.54318000  1
  C  C602  1  0.09961000  0.22486000  0.53774000  1
  C  C603  1  0.17488000  0.29535000  0.52654000  1
  C  C604  1  0.21505000  0.96434000  0.70943000  1
  C  C605  1  0.17856000  0.96175000  0.67288000  1
  C  C606  1  0.32240000  0.50490000  0.25515000  1
  C  C607  1  0.35664000  0.50637000  0.29383000  1
  C  C608  1  0.81425000  0.47487000  0.75606000  1
  C  C609  1  0.85309000  0.47480000  0.79202000  1
  C  C610  1  0.90658000  0.43183000  0.73149000  1
  C  C611  1  0.86864000  0.43267000  0.69644000  1
  C  C612  1  0.89904000  0.45218000  0.77867000  1
  C  C613  1  0.82286000  0.45390000  0.70838000  1
  C  C614  1  0.81653000  0.97720000  0.25971000  1
  C  C615  1  0.85188000  0.97891000  0.29708000  1
  C  C616  1  0.68181000  0.53786000  0.25921000  1
  C  C617  1  0.64601000  0.53860000  0.29824000  1
  C  C618  1  0.59254000  0.59136000  0.24670000  1
  C  C619  1  0.62559000  0.58684000  0.20707000  1
  C  C620  1  0.60268000  0.56770000  0.29183000  1
  C  C621  1  0.66983000  0.56021000  0.21297000  1
  C  C622  1  0.67919000  0.01684000  0.75654000  1
  C  C623  1  0.64469000  0.01111000  0.79435000  1
  C  C624  1  0.20388000  0.54774000  0.78108000  1
  C  C625  1  0.16594000  0.54717000  0.81797000  1
  C  C626  1  0.14919000  0.63512000  0.80179000  1
  C  C627  1  0.18726000  0.63610000  0.76658000  1
  C  C628  1  0.13921000  0.59146000  0.82814000  1
  C  C629  1  0.21526000  0.59332000  0.75715000  1
  C  C630  1  0.21024000  0.04771000  0.28587000  1
  C  C631  1  0.16731000  0.04592000  0.31669000  1
  C  C632  1  0.14797000  0.13088000  0.29130000  1
  C  C633  1  0.19360000  0.13487000  0.26720000  1
  C  C634  1  0.13568000  0.08789000  0.31798000  1
  C  C635  1  0.22494000  0.09369000  0.26470000  1
  C  C636  1  0.49961000  0.25426000  0.67635000  1
  C  C637  1  0.49687000  0.29342000  0.64271000  1
  C  C638  1  0.47378000  0.25666000  0.31750000  1
  C  C639  1  0.47022000  0.29522000  0.35369000  1
  C  C640  1  0.42524000  0.23764000  0.40839000  1
  C  C641  1  0.43325000  0.19889000  0.37497000  1
  C  C642  1  0.44296000  0.28534000  0.39778000  1
  C  C643  1  0.45705000  0.20815000  0.32974000  1
  C  C644  1  0.46541000  0.77528000  0.79831000  1
  C  C645  1  0.46299000  0.81260000  0.83396000  1
  C  C646  1  0.94699000  0.29799000  0.78071000  1
  C  C647  1  0.94829000  0.33091000  0.82168000  1
  C  C648  1  0.85873000  0.34381000  0.81293000  1
  C  C649  1  0.85840000  0.31456000  0.77004000  1
  C  C650  1  0.90324000  0.35223000  0.83867000  1
  C  C651  1  0.90224000  0.29173000  0.75386000  1
  C  C652  1  0.98760000  0.75750000  0.31895000  1
  C  C653  1  0.99204000  0.79435000  0.35501000  1
  C  C654  1  0.53817000  0.71516000  0.29128000  1
  C  C655  1  0.53965000  0.67922000  0.32845000  1
  C  C656  1  0.01605000  0.74375000  0.82006000  1
  C  C657  1  0.01197000  0.70666000  0.85568000  1
  C  C658  1  0.04317000  0.22682000  0.30376000  1
  C  C659  1  0.04174000  0.19143000  0.34301000  1
  C  C660  1  0.12132000  0.22318000  0.37407000  1
  C  C661  1  0.12391000  0.25631000  0.33427000  1
  C  C662  1  0.08104000  0.19065000  0.37825000  1
  C  C663  1  0.08551000  0.25804000  0.29923000  1
  C  C664  1  0.27387000  0.80172000  0.05752000  1
  C  C665  1  0.30630000  0.84333000  0.05058000  1
  C  C666  1  0.26589000  0.88467000  0.12119000  1
  C  C667  1  0.23495000  0.84367000  0.12811000  1
  C  C668  1  0.30160000  0.88447000  0.08318000  1
  C  C669  1  0.23898000  0.80235000  0.09692000  1
  C  C670  1  0.76487000  0.31058000  0.95834000  1
  C  C671  1  0.80236000  0.34813000  0.95903000  1
  C  C672  1  0.75672000  0.39313000  0.89427000  1
  C  C673  1  0.71911000  0.35753000  0.89528000  1
  C  C674  1  0.79818000  0.38838000  0.92536000  1
  C  C675  1  0.72296000  0.31651000  0.92686000  1
  C  C676  1  0.78143000  0.20528000  0.54213000  1
  C  C677  1  0.82089000  0.17191000  0.54240000  1
  C  C678  1  0.73270000  0.81648000  0.05032000  1
  C  C679  1  0.69428000  0.85064000  0.04406000  1
  C  C680  1  0.24163000  0.31670000  0.00364000  1
  C  C681  1  0.20573000  0.35394000  0.00148000  1
  C  C682  1  0.19710000  0.77396000  0.54726000  1
  C  C683  1  0.16163000  0.81333000  0.54721000  1
  C  C684  1  0.14084000  0.79326000  0.63341000  1
  C  C685  1  0.17381000  0.75330000  0.63257000  1
  C  C686  1  0.13398000  0.82267000  0.59103000  1
  C  C687  1  0.20142000  0.74323000  0.58982000  1
  C  C688  1  0.71169000  0.70948000  0.45158000  1
  C  C689  1  0.67677000  0.67001000  0.45196000  1
  C  C690  1  0.68706000  0.66035000  0.36209000  1
  C  C691  1  0.72086000  0.69974000  0.36154000  1
  C  C692  1  0.66477000  0.64570000  0.40674000  1
  C  C693  1  0.73285000  0.72450000  0.40569000  1
  C  C694  1  0.24330000  0.18015000  0.48954000  1
  C  C695  1  0.20516000  0.14518000  0.48969000  1
  C  C696  1  0.50268000  0.61793000  0.61766000  1
  C  C697  1  0.50843000  0.65712000  0.65608000  1
  C  C698  1  0.50878000  0.72975000  0.73178000  1
  C  C699  1  0.49950000  0.11761000  0.11757000  1
  C  C700  1  0.49581000  0.15607000  0.15567000  1
  C  C701  1  0.49205000  0.23109000  0.22847000  1
  C  C702  1  0.99949000  0.61760000  0.11770000  1
  C  C703  1  0.99985000  0.65585000  0.15650000  1
  C  C704  1  0.99732000  0.72807000  0.23220000  1
  C  C705  1  0.99824000  0.11759000  0.61771000  1
  C  C706  1  0.99389000  0.15569000  0.65656000  1
  C  C707  1  0.99391000  0.22994000  0.73102000  1
  C  C708  1  0.50051000  0.38220000  0.61833000  1
  C  C709  1  0.50247000  0.34335000  0.65819000  1
  C  C710  1  0.50963000  0.26335000  0.72640000  1
  C  C711  1  0.49781000  0.88205000  0.11773000  1
  C  C712  1  0.49316000  0.84256000  0.15606000  1
  C  C713  1  0.49405000  0.76689000  0.22929000  1
  C  C714  1  0.00181000  0.38235000  0.11823000  1
  C  C715  1  0.00472000  0.34453000  0.15869000  1
  C  C716  1  0.99850000  0.26988000  0.23256000  1
  C  C717  1  0.99984000  0.88171000  0.61961000  1
  C  C718  1  0.99981000  0.84450000  0.65837000  1
  C  C719  1  0.00420000  0.77248000  0.73381000  1
  C  C720  1  0.49943000  0.61762000  0.38247000  1
  C  C721  1  0.49586000  0.65613000  0.34443000  1
  C  C722  1  0.49262000  0.73010000  0.27048000  1
  C  C723  1  0.49988000  0.11761000  0.88219000  1
  C  C724  1  0.49971000  0.15520000  0.84255000  1
  C  C725  1  0.50226000  0.22259000  0.76250000  1
  C  C726  1  0.99948000  0.61961000  0.88112000  1
  C  C727  1  0.00070000  0.65756000  0.84172000  1
  C  C728  1  0.01274000  0.73186000  0.76951000  1
  C  C729  1  0.00038000  0.11765000  0.38245000  1
  C  C730  1  0.00237000  0.15632000  0.34439000  1
  C  C731  1  0.00267000  0.22934000  0.26965000  1
  C  C732  1  0.49764000  0.38202000  0.38226000  1
  C  C733  1  0.49263000  0.34254000  0.34382000  1
  C  C734  1  0.49301000  0.26782000  0.26960000  1
  C  C735  1  0.50043000  0.88036000  0.88165000  1
  C  C736  1  0.50486000  0.84174000  0.84417000  1
  C  C737  1  0.51008000  0.76582000  0.77310000  1
  C  C738  1  0.99904000  0.38036000  0.88171000  1
  C  C739  1  0.99468000  0.34185000  0.84417000  1
  C  C740  1  0.99351000  0.27071000  0.76739000  1
  C  C741  1  0.00151000  0.88224000  0.38186000  1
  C  C742  1  0.00315000  0.84383000  0.34194000  1
  C  C743  1  0.99243000  0.76928000  0.26847000  1
  C  C744  1  0.61747000  0.49939000  0.61764000  1
  C  C745  1  0.65502000  0.49639000  0.65651000  1
  C  C746  1  0.72583000  0.49507000  0.73298000  1
  C  C747  1  0.61754000  0.00047000  0.11745000  1
  C  C748  1  0.65616000  0.00265000  0.15510000  1
  C  C749  1  0.73381000  0.00375000  0.22507000  1
  C  C750  1  0.11778000  0.50096000  0.11762000  1
  C  C751  1  0.15722000  0.50309000  0.15533000  1
  C  C752  1  0.23597000  0.50299000  0.22417000  1
  C  C753  1  0.11755000  0.00073000  0.61753000  1
  C  C754  1  0.15566000  0.00518000  0.65570000  1
  C  C755  1  0.22904000  0.01035000  0.72983000  1
  C  C756  1  0.61762000  0.50363000  0.38220000  1
  C  C757  1  0.65588000  0.51220000  0.34328000  1
  C  C758  1  0.72899000  0.51579000  0.26797000  1
  C  C759  1  0.62020000  0.99987000  0.88155000  1
  C  C760  1  0.65994000  0.00252000  0.84372000  1
  C  C761  1  0.72987000  0.01588000  0.76733000  1
  C  C762  1  0.11761000  0.50021000  0.88239000  1
  C  C763  1  0.15593000  0.50243000  0.84393000  1
  C  C764  1  0.22910000  0.50267000  0.76905000  1
  C  C765  1  0.11767000  0.00078000  0.38232000  1
  C  C766  1  0.15655000  0.00199000  0.34413000  1
  C  C767  1  0.23612000  0.00317000  0.27531000  1
  C  C768  1  0.38198000  0.50197000  0.61769000  1
  C  C769  1  0.34212000  0.50547000  0.65574000  1
  C  C770  1  0.26607000  0.49990000  0.72816000  1
  C  C771  1  0.38219000  0.00144000  0.11779000  1
  C  C772  1  0.34353000  0.00307000  0.15680000  1
  C  C773  1  0.26996000  0.99865000  0.23220000  1
  C  C774  1  0.88151000  0.50086000  0.11956000  1
  C  C775  1  0.84330000  0.50681000  0.15744000  1
  C  C776  1  0.76885000  0.51468000  0.23020000  1
  C  C777  1  0.88152000  0.00030000  0.61943000  1
  C  C778  1  0.84290000  0.00171000  0.65684000  1
  C  C779  1  0.76443000  0.00816000  0.72605000  1
  C  C780  1  0.38166000  0.50059000  0.38228000  1
  C  C781  1  0.34151000  0.50135000  0.34386000  1
  C  C782  1  0.27216000  0.49631000  0.26491000  1
  C  C783  1  0.38029000  0.00210000  0.88138000  1
  C  C784  1  0.34189000  0.00860000  0.84291000  1
  C  C785  1  0.26919000  0.01030000  0.76742000  1
  C  C786  1  0.88159000  0.49884000  0.87985000  1
  C  C787  1  0.84387000  0.49632000  0.84004000  1
  C  C788  1  0.76741000  0.49557000  0.76848000  1
  C  C789  1  0.88126000  0.00143000  0.38032000  1
  C  C790  1  0.84242000  0.00423000  0.34180000  1
  C  C791  1  0.76865000  0.00251000  0.26701000  1
  C  C792  1  0.61737000  0.61749000  0.49978000  1
  C  C793  1  0.65484000  0.65598000  0.49769000  1
  C  C794  1  0.72501000  0.73234000  0.49736000  1
  C  C795  1  0.61771000  0.11763000  0.99851000  1
  C  C796  1  0.65655000  0.15573000  0.99347000  1
  C  C797  1  0.73273000  0.22764000  0.98935000  1
  C  C798  1  0.11785000  0.61758000  0.00141000  1
  C  C799  1  0.15728000  0.65527000  0.00590000  1
  C  C800  1  0.23442000  0.72547000  0.01864000  1
  C  C801  1  0.11778000  0.11822000  0.50153000  1
  C  C802  1  0.15642000  0.15811000  0.50411000  1
  C  C803  1  0.23388000  0.22953000  0.50267000  1
  C  C804  1  0.38225000  0.61771000  0.50153000  1
  C  C805  1  0.34344000  0.65618000  0.50547000  1
  C  C806  1  0.26920000  0.73027000  0.50549000  1
  C  C807  1  0.38235000  0.11759000  0.99965000  1
  C  C808  1  0.34368000  0.15572000  0.99737000  1
  C  C809  1  0.26948000  0.22939000  0.99695000  1
  C  C810  1  0.88093000  0.61967000  0.00217000  1
  C  C811  1  0.84190000  0.65787000  0.01152000  1
  C  C812  1  0.77562000  0.73799000  0.02962000  1
  C  C813  1  0.88156000  0.11951000  0.49986000  1
  C  C814  1  0.84302000  0.15718000  0.49763000  1
  C  C815  1  0.76255000  0.22314000  0.49697000  1
  C  C816  1  0.61803000  0.38217000  0.49871000  1
  C  C817  1  0.65717000  0.34308000  0.49667000  1
  C  C818  1  0.72782000  0.26542000  0.49887000  1
  C  C819  1  0.61982000  0.88158000  0.00093000  1
  C  C820  1  0.65914000  0.84439000  0.00607000  1
  C  C821  1  0.73818000  0.77613000  0.01775000  1
  C  C822  1  0.11765000  0.38196000  0.99787000  1
  C  C823  1  0.15558000  0.34221000  0.99325000  1
  C  C824  1  0.22870000  0.26622000  0.00007000  1
  C  C825  1  0.11771000  0.88224000  0.50087000  1
  C  C826  1  0.15606000  0.84328000  0.50401000  1
  C  C827  1  0.22827000  0.76712000  0.50526000  1
  C  C828  1  0.38250000  0.38232000  0.50035000  1
  C  C829  1  0.34495000  0.34323000  0.50300000  1
  C  C830  1  0.27592000  0.26485000  0.50436000  1
  C  C831  1  0.38014000  0.88134000  0.00270000  1
  C  C832  1  0.34231000  0.84204000  0.01132000  1
  C  C833  1  0.27633000  0.76091000  0.02424000  1
  C  C834  1  0.88219000  0.38224000  0.99770000  1
  C  C835  1  0.84351000  0.34332000  0.99234000  1
  C  C836  1  0.77039000  0.26782000  0.98869000  1
  C  C837  1  0.87961000  0.87918000  0.49936000  1
  C  C838  1  0.84166000  0.83986000  0.49699000  1
  C  C839  1  0.76649000  0.76759000  0.50050000  1
  O  O840  1  0.50000000  0.57242000  0.63194000  1
  O  O841  1  0.50000000  0.07242000  0.13194000  1
  O  O842  1  0.00000000  0.57242000  0.13194000  1
  O  O843  1  0.00000000  0.07242000  0.63194000  1
  O  O844  1  0.50000000  0.42758000  0.63194000  1
  O  O845  1  0.50000000  0.92758000  0.13194000  1
  O  O846  1  0.00000000  0.42758000  0.13194000  1
  O  O847  1  0.00000000  0.92758000  0.63194000  1
  O  O848  1  0.50000000  0.57242000  0.36806000  1
  O  O849  1  0.50000000  0.07242000  0.86806000  1
  O  O850  1  0.00000000  0.57242000  0.86806000  1
  O  O851  1  0.00000000  0.07242000  0.36806000  1
  O  O852  1  0.50000000  0.42758000  0.36806000  1
  O  O853  1  0.50000000  0.92758000  0.86806000  1
  O  O854  1  0.00000000  0.42758000  0.86806000  1
  O  O855  1  0.00000000  0.92758000  0.36806000  1
  O  O856  1  0.63194000  0.50000000  0.57242000  1
  O  O857  1  0.63194000  0.00000000  0.07242000  1
  O  O858  1  0.13194000  0.50000000  0.07242000  1
  O  O859  1  0.13194000  0.00000000  0.57242000  1
  O  O860  1  0.63194000  0.50000000  0.42758000  1
  O  O861  1  0.63194000  0.00000000  0.92758000  1
  O  O862  1  0.13194000  0.50000000  0.92758000  1
  O  O863  1  0.13194000  0.00000000  0.42758000  1
  O  O864  1  0.36806000  0.50000000  0.57242000  1
  O  O865  1  0.36806000  0.00000000  0.07242000  1
  O  O866  1  0.86806000  0.50000000  0.07242000  1
  O  O867  1  0.86806000  0.00000000  0.57242000  1
  O  O868  1  0.36806000  0.50000000  0.42758000  1
  O  O869  1  0.36806000  0.00000000  0.92758000  1
  O  O870  1  0.86806000  0.50000000  0.92758000  1
  O  O871  1  0.86806000  0.00000000  0.42758000  1
  O  O872  1  0.57242000  0.63194000  0.50000000  1
  O  O873  1  0.57242000  0.13194000  0.00000000  1
  O  O874  1  0.07242000  0.63194000  0.00000000  1
  O  O875  1  0.07242000  0.13194000  0.50000000  1
  O  O876  1  0.42758000  0.63194000  0.50000000  1
  O  O877  1  0.42758000  0.13194000  0.00000000  1
  O  O878  1  0.92758000  0.63194000  0.00000000  1
  O  O879  1  0.92758000  0.13194000  0.50000000  1
  O  O880  1  0.57242000  0.36806000  0.50000000  1
  O  O881  1  0.57242000  0.86806000  0.00000000  1
  O  O882  1  0.07242000  0.36806000  0.00000000  1
  O  O883  1  0.07242000  0.86806000  0.50000000  1
  O  O884  1  0.42758000  0.36806000  0.50000000  1
  O  O885  1  0.42758000  0.86806000  0.00000000  1
  O  O886  1  0.92758000  0.36806000  0.00000000  1
  O  O887  1  0.92758000  0.86806000  0.50000000  1
  O  O888  1  0.57242000  0.50000000  0.36806000  1
  O  O889  1  0.57242000  0.00000000  0.86806000  1
  O  O890  1  0.07242000  0.50000000  0.86806000  1
  O  O891  1  0.07242000  0.00000000  0.36806000  1
  O  O892  1  0.42758000  0.50000000  0.36806000  1
  O  O893  1  0.42758000  0.00000000  0.86806000  1
  O  O894  1  0.92758000  0.50000000  0.86806000  1
  O  O895  1  0.92758000  0.00000000  0.36806000  1
  O  O896  1  0.57242000  0.50000000  0.63194000  1
  O  O897  1  0.57242000  0.00000000  0.13194000  1
  O  O898  1  0.07242000  0.50000000  0.13194000  1
  O  O899  1  0.07242000  0.00000000  0.63194000  1
  O  O900  1  0.42758000  0.50000000  0.63194000  1
  O  O901  1  0.42758000  0.00000000  0.13194000  1
  O  O902  1  0.92758000  0.50000000  0.13194000  1
  O  O903  1  0.92758000  0.00000000  0.63194000  1
  O  O904  1  0.50000000  0.63194000  0.42758000  1
  O  O905  1  0.50000000  0.13194000  0.92758000  1
  O  O906  1  0.00000000  0.63194000  0.92758000  1
  O  O907  1  0.00000000  0.13194000  0.42758000  1
  O  O908  1  0.50000000  0.63194000  0.57242000  1
  O  O909  1  0.50000000  0.13194000  0.07242000  1
  O  O910  1  0.00000000  0.63194000  0.07242000  1
  O  O911  1  0.00000000  0.13194000  0.57242000  1
  O  O912  1  0.50000000  0.36806000  0.42758000  1
  O  O913  1  0.50000000  0.86806000  0.92758000  1
  O  O914  1  0.00000000  0.36806000  0.92758000  1
  O  O915  1  0.00000000  0.86806000  0.42758000  1
  O  O916  1  0.50000000  0.36806000  0.57242000  1
  O  O917  1  0.50000000  0.86806000  0.07242000  1
  O  O918  1  0.00000000  0.36806000  0.07242000  1
  O  O919  1  0.00000000  0.86806000  0.57242000  1
  O  O920  1  0.63194000  0.57242000  0.50000000  1
  O  O921  1  0.63194000  0.07242000  0.00000000  1
  O  O922  1  0.13194000  0.57242000  0.00000000  1
  O  O923  1  0.13194000  0.07242000  0.50000000  1
  O  O924  1  0.63194000  0.42758000  0.50000000  1
  O  O925  1  0.63194000  0.92758000  0.00000000  1
  O  O926  1  0.13194000  0.42758000  0.00000000  1
  O  O927  1  0.13194000  0.92758000  0.50000000  1
  O  O928  1  0.36806000  0.57242000  0.50000000  1
  O  O929  1  0.36806000  0.07242000  0.00000000  1
  O  O930  1  0.86806000  0.57242000  0.00000000  1
  O  O931  1  0.86806000  0.07242000  0.50000000  1
  O  O932  1  0.36806000  0.42758000  0.50000000  1
  O  O933  1  0.36806000  0.92758000  0.00000000  1
  O  O934  1  0.86806000  0.42758000  0.00000000  1
  O  O935  1  0.86806000  0.92758000  0.50000000  1
  O  O936  1  0.46148000  0.46148000  0.53852000  1
  O  O937  1  0.44841000  0.44841000  0.55159000  1
  O  O938  1  0.46148000  0.96148000  0.03852000  1
  O  O939  1  0.44841000  0.94841000  0.05159000  1
  O  O940  1  0.96148000  0.46148000  0.03852000  1
  O  O941  1  0.94841000  0.44841000  0.05159000  1
  O  O942  1  0.96148000  0.96148000  0.53852000  1
  O  O943  1  0.94841000  0.94841000  0.55159000  1
  O  O944  1  0.53852000  0.53852000  0.53852000  1
  O  O945  1  0.55159000  0.55159000  0.55159000  1
  O  O946  1  0.53852000  0.03852000  0.03852000  1
  O  O947  1  0.55159000  0.05159000  0.05159000  1
  O  O948  1  0.03852000  0.53852000  0.03852000  1
  O  O949  1  0.05159000  0.55159000  0.05159000  1
  O  O950  1  0.03852000  0.03852000  0.53852000  1
  O  O951  1  0.05159000  0.05159000  0.55159000  1
  O  O952  1  0.53852000  0.46148000  0.46148000  1
  O  O953  1  0.55159000  0.44841000  0.44841000  1
  O  O954  1  0.53852000  0.96148000  0.96148000  1
  O  O955  1  0.55159000  0.94841000  0.94841000  1
  O  O956  1  0.03852000  0.46148000  0.96148000  1
  O  O957  1  0.05159000  0.44841000  0.94841000  1
  O  O958  1  0.03852000  0.96148000  0.46148000  1
  O  O959  1  0.05159000  0.94841000  0.44841000  1
  O  O960  1  0.46148000  0.53852000  0.46148000  1
  O  O961  1  0.44841000  0.55159000  0.44841000  1
  O  O962  1  0.46148000  0.03852000  0.96148000  1
  O  O963  1  0.44841000  0.05159000  0.94841000  1
  O  O964  1  0.96148000  0.53852000  0.96148000  1
  O  O965  1  0.94841000  0.55159000  0.94841000  1
  O  O966  1  0.96148000  0.03852000  0.46148000  1
  O  O967  1  0.94841000  0.05159000  0.44841000  1
  O  O968  1  0.46148000  0.46148000  0.46148000  1
  O  O969  1  0.44841000  0.44841000  0.44841000  1
  O  O970  1  0.46148000  0.96148000  0.96148000  1
  O  O971  1  0.44841000  0.94841000  0.94841000  1
  O  O972  1  0.96148000  0.46148000  0.96148000  1
  O  O973  1  0.94841000  0.44841000  0.94841000  1
  O  O974  1  0.96148000  0.96148000  0.46148000  1
  O  O975  1  0.94841000  0.94841000  0.44841000  1
  O  O976  1  0.53852000  0.53852000  0.46148000  1
  O  O977  1  0.55159000  0.55159000  0.44841000  1
  O  O978  1  0.53852000  0.03852000  0.96148000  1
  O  O979  1  0.55159000  0.05159000  0.94841000  1
  O  O980  1  0.03852000  0.53852000  0.96148000  1
  O  O981  1  0.05159000  0.55159000  0.94841000  1
  O  O982  1  0.03852000  0.03852000  0.46148000  1
  O  O983  1  0.05159000  0.05159000  0.44841000  1
  O  O984  1  0.46148000  0.53852000  0.53852000  1
  O  O985  1  0.44841000  0.55159000  0.55159000  1
  O  O986  1  0.46148000  0.03852000  0.03852000  1
  O  O987  1  0.44841000  0.05159000  0.05159000  1
  O  O988  1  0.96148000  0.53852000  0.03852000  1
  O  O989  1  0.94841000  0.55159000  0.05159000  1
  O  O990  1  0.96148000  0.03852000  0.53852000  1
  O  O991  1  0.94841000  0.05159000  0.55159000  1
  O  O992  1  0.53852000  0.46148000  0.53852000  1
  O  O993  1  0.55159000  0.44841000  0.55159000  1
  O  O994  1  0.53852000  0.96148000  0.03852000  1
  O  O995  1  0.55159000  0.94841000  0.05159000  1
  O  O996  1  0.03852000  0.46148000  0.03852000  1
  O  O997  1  0.05159000  0.44841000  0.05159000  1
  O  O998  1  0.03852000  0.96148000  0.53852000  1
  O  O999  1  0.05159000  0.94841000  0.55159000  1
