# generated using pymatgen
data_Zr12H145(C33O10)8
_symmetry_space_group_name_H-M   'P 1'
_cell_length_a   26.81670000
_cell_length_b   26.81670000
_cell_length_c   26.81670000
_cell_angle_alpha   90.00000000
_cell_angle_beta   90.00000000
_cell_angle_gamma   90.00000000
_symmetry_Int_Tables_number   1
_chemical_formula_structural   Zr12H145(C33O10)8
_chemical_formula_sum   'Zr24 H290 C528 O160'
_cell_volume   19284.83825141
_cell_formula_units_Z   2
loop_
 _symmetry_equiv_pos_site_id
 _symmetry_equiv_pos_as_xyz
  1  'x, y, z'
loop_
 _atom_site_type_symbol
 _atom_site_label
 _atom_site_symmetry_multiplicity
 _atom_site_fract_x
 _atom_site_fract_y
 _atom_site_fract_z
 _atom_site_occupancy
  Zr  Zr0  1  0.50000000  0.50000000  0.59218000  1
  Zr  Zr1  1  0.50000000  0.00000000  0.09218000  1
  Zr  Zr2  1  0.00000000  0.50000000  0.09218000  1
  Zr  Zr3  1  0.00000000  0.00000000  0.59218000  1
  Zr  Zr4  1  0.50000000  0.50000000  0.40782000  1
  Zr  Zr5  1  0.50000000  0.00000000  0.90782000  1
  Zr  Zr6  1  0.00000000  0.50000000  0.90782000  1
  Zr  Zr7  1  0.00000000  0.00000000  0.40782000  1
  Zr  Zr8  1  0.59218000  0.50000000  0.50000000  1
  Zr  Zr9  1  0.59218000  0.00000000  0.00000000  1
  Zr  Zr10  1  0.09218000  0.50000000  0.00000000  1
  Zr  Zr11  1  0.09218000  0.00000000  0.50000000  1
  Zr  Zr12  1  0.40782000  0.50000000  0.50000000  1
  Zr  Zr13  1  0.40782000  0.00000000  0.00000000  1
  Zr  Zr14  1  0.90782000  0.50000000  0.00000000  1
  Zr  Zr15  1  0.90782000  0.00000000  0.50000000  1
  Zr  Zr16  1  0.50000000  0.59218000  0.50000000  1
  Zr  Zr17  1  0.50000000  0.09218000  0.00000000  1
  Zr  Zr18  1  0.00000000  0.59218000  0.00000000  1
  Zr  Zr19  1  0.00000000  0.09218000  0.50000000  1
  Zr  Zr20  1  0.50000000  0.40782000  0.50000000  1
  Zr  Zr21  1  0.50000000  0.90782000  0.00000000  1
  Zr  Zr22  1  0.00000000  0.40782000  0.00000000  1
  Zr  Zr23  1  0.00000000  0.90782000  0.50000000  1
  H  H24  1  0.17301000  0.46172000  0.27577000  1
  H  H25  1  0.10923000  0.46908000  0.21185000  1
  H  H26  1  0.25263000  0.56457000  0.29307000  1
  H  H27  1  0.31703000  0.56806000  0.35730000  1
  H  H28  1  0.19106000  0.56211000  0.07860000  1
  H  H29  1  0.32433000  0.51941000  0.19849000  1
  H  H30  1  0.34360000  0.56305000  0.12098000  1
  H  H31  1  0.27654000  0.58531000  0.06198000  1
  H  H32  1  0.38753000  0.40314000  0.36241000  1
  H  H33  1  0.26197000  0.39765000  0.22635000  1
  H  H34  1  0.30740000  0.32226000  0.25124000  1
  H  H35  1  0.36875000  0.32483000  0.31987000  1
  H  H36  1  0.59673000  0.58297000  0.66611000  1
  H  H37  1  0.74324000  0.58302000  0.77796000  1
  H  H38  1  0.68344000  0.65119000  0.78038000  1
  H  H39  1  0.60944000  0.65018000  0.72627000  1
  H  H40  1  0.79328000  0.53699000  0.92806000  1
  H  H41  1  0.67405000  0.47812000  0.80097000  1
  H  H42  1  0.64575000  0.50151000  0.88428000  1
  H  H43  1  0.70579000  0.53279000  0.94675000  1
  H  H44  1  0.75273000  0.42624000  0.68997000  1
  H  H45  1  0.68713000  0.43108000  0.62715000  1
  H  H46  1  0.83187000  0.48296000  0.71619000  1
  H  H47  1  0.89367000  0.48672000  0.78223000  1
  H  H48  1  0.26042000  0.57015000  0.71213000  1
  H  H49  1  0.32294000  0.57137000  0.64565000  1
  H  H50  1  0.38564000  0.40350000  0.63616000  1
  H  H51  1  0.24656000  0.39645000  0.75769000  1
  H  H52  1  0.29046000  0.32069000  0.73332000  1
  H  H53  1  0.35948000  0.32404000  0.67279000  1
  H  H54  1  0.19256000  0.43989000  0.92632000  1
  H  H55  1  0.32588000  0.47266000  0.80363000  1
  H  H56  1  0.34523000  0.43663000  0.88476000  1
  H  H57  1  0.27811000  0.41891000  0.94533000  1
  H  H58  1  0.17386000  0.52044000  0.72047000  1
  H  H59  1  0.11119000  0.52315000  0.78559000  1
  H  H60  1  0.73746000  0.42916000  0.28449000  1
  H  H61  1  0.67313000  0.42620000  0.34893000  1
  H  H62  1  0.72474000  0.46779000  0.17925000  1
  H  H63  1  0.78939000  0.46563000  0.11571000  1
  H  H64  1  0.61266000  0.59524000  0.36272000  1
  H  H65  1  0.73912000  0.60037000  0.22794000  1
  H  H66  1  0.69391000  0.67569000  0.25213000  1
  H  H67  1  0.63083000  0.67309000  0.31929000  1
  H  H68  1  0.92176000  0.56961000  0.18409000  1
  H  H69  1  0.80033000  0.54852000  0.32102000  1
  H  H70  1  0.87803000  0.59389000  0.33447000  1
  H  H71  1  0.93813000  0.60511000  0.26556000  1
  H  H72  1  0.47759000  0.32780000  0.22070000  1
  H  H73  1  0.47843000  0.39116000  0.28524000  1
  H  H74  1  0.55184000  0.30200000  0.42847000  1
  H  H75  1  0.50154000  0.17285000  0.30747000  1
  H  H76  1  0.53220000  0.14990000  0.39002000  1
  H  H77  1  0.55825000  0.21497000  0.44971000  1
  H  H78  1  0.58986000  0.10438000  0.15239000  1
  H  H79  1  0.59299000  0.24521000  0.27163000  1
  H  H80  1  0.66643000  0.19316000  0.25964000  1
  H  H81  1  0.66465000  0.12279000  0.20069000  1
  H  H82  1  0.42575000  0.24487000  0.20379000  1
  H  H83  1  0.42750000  0.18132000  0.13857000  1
  H  H84  1  0.40717000  0.61235000  0.64807000  1
  H  H85  1  0.41195000  0.75182000  0.76920000  1
  H  H86  1  0.33516000  0.70534000  0.75545000  1
  H  H87  1  0.33224000  0.63702000  0.69516000  1
  H  H88  1  0.57743000  0.74548000  0.69896000  1
  H  H89  1  0.57417000  0.67879000  0.63691000  1
  H  H90  1  0.51218000  0.83350000  0.71729000  1
  H  H91  1  0.50966000  0.89395000  0.78403000  1
  H  H92  1  0.47458000  0.79017000  0.93388000  1
  H  H93  1  0.51310000  0.67357000  0.79733000  1
  H  H94  1  0.49884000  0.64377000  0.88181000  1
  H  H95  1  0.47914000  0.70292000  0.94932000  1
  H  H96  1  0.58186000  0.40724000  0.66648000  1
  H  H97  1  0.58659000  0.26478000  0.78305000  1
  H  H98  1  0.65167000  0.32802000  0.78470000  1
  H  H99  1  0.64796000  0.40024000  0.72815000  1
  H  H100  1  0.43203000  0.24493000  0.69212000  1
  H  H101  1  0.43562000  0.30849000  0.62718000  1
  H  H102  1  0.48806000  0.16919000  0.71844000  1
  H  H103  1  0.48907000  0.10629000  0.78337000  1
  H  H104  1  0.54170000  0.20391000  0.93078000  1
  H  H105  1  0.48245000  0.32537000  0.80599000  1
  H  H106  1  0.50513000  0.35207000  0.88994000  1
  H  H107  1  0.53695000  0.29109000  0.95117000  1
  H  H108  1  0.57213000  0.77877000  0.23227000  1
  H  H109  1  0.57488000  0.84396000  0.16882000  1
  H  H110  1  0.40446000  0.86359000  0.11446000  1
  H  H111  1  0.39604000  0.74675000  0.25732000  1
  H  H112  1  0.32034000  0.77164000  0.21335000  1
  H  H113  1  0.32469000  0.82854000  0.14113000  1
  H  H114  1  0.42997000  0.57828000  0.31704000  1
  H  H115  1  0.46139000  0.69413000  0.17741000  1
  H  H116  1  0.41636000  0.61631000  0.16380000  1
  H  H117  1  0.39965000  0.55916000  0.23415000  1
  H  H118  1  0.52912000  0.77590000  0.32298000  1
  H  H119  1  0.53185000  0.71152000  0.38664000  1
  H  H120  1  0.68732000  0.75545000  0.42795000  1
  H  H121  1  0.62686000  0.68748000  0.43135000  1
  H  H122  1  0.66540000  0.59840000  0.58385000  1
  H  H123  1  0.78165000  0.74176000  0.58051000  1
  H  H124  1  0.78370000  0.68215000  0.64906000  1
  H  H125  1  0.72695000  0.61015000  0.64993000  1
  H  H126  1  0.93507000  0.78751000  0.49662000  1
  H  H127  1  0.79108000  0.67903000  0.46319000  1
  H  H128  1  0.87583000  0.64738000  0.45974000  1
  H  H129  1  0.94695000  0.70251000  0.47791000  1
  H  H130  1  0.71532000  0.83532000  0.50403000  1
  H  H131  1  0.78251000  0.89544000  0.50625000  1
  H  H132  1  0.17928000  0.72589000  0.53289000  1
  H  H133  1  0.11534000  0.79004000  0.53594000  1
  H  H134  1  0.17912000  0.91929000  0.42615000  1
  H  H135  1  0.33212000  0.88228000  0.40732000  1
  H  H136  1  0.26064000  0.93788000  0.39140000  1
  H  H137  1  0.38197000  0.63194000  0.40397000  1
  H  H138  1  0.28217000  0.72275000  0.31962000  1
  H  H139  1  0.35288000  0.66396000  0.32392000  1
  H  H140  1  0.27102000  0.72456000  0.57214000  1
  H  H141  1  0.33425000  0.65921000  0.57518000  1
  H  H142  1  0.12565000  0.12614000  0.40332000  1
  H  H143  1  0.26752000  0.24447000  0.39909000  1
  H  H144  1  0.23420000  0.20939000  0.32204000  1
  H  H145  1  0.16304000  0.15094000  0.32408000  1
  H  H146  1  0.22402000  0.22876000  0.57359000  1
  H  H147  1  0.16047000  0.16370000  0.57589000  1
  H  H148  1  0.31984000  0.22742000  0.53836000  1
  H  H149  1  0.38362000  0.29189000  0.54023000  1
  H  H150  1  0.31945000  0.42004000  0.42862000  1
  H  H151  1  0.18052000  0.30145000  0.45164000  1
  H  H152  1  0.16990000  0.37624000  0.40112000  1
  H  H153  1  0.23987000  0.43481000  0.38871000  1
  H  H154  1  0.74823000  0.30520000  0.42136000  1
  H  H155  1  0.68146000  0.36713000  0.42606000  1
  H  H156  1  0.83402000  0.28457000  0.48968000  1
  H  H157  1  0.89532000  0.21842000  0.49666000  1
  H  H158  1  0.60371000  0.34003000  0.58668000  1
  H  H159  1  0.74834000  0.22538000  0.58278000  1
  H  H160  1  0.69425000  0.22896000  0.65558000  1
  H  H161  1  0.62136000  0.28453000  0.65683000  1
  H  H162  1  0.79185000  0.07106000  0.53294000  1
  H  H163  1  0.67650000  0.20119000  0.47320000  1
  H  H164  1  0.64675000  0.11719000  0.49135000  1
  H  H165  1  0.70474000  0.05302000  0.52288000  1
  H  H166  1  0.19215000  0.05837000  0.42541000  1
  H  H167  1  0.32421000  0.02640000  0.30164000  1
  H  H168  1  0.34299000  0.06730000  0.38047000  1
  H  H169  1  0.27628000  0.08355000  0.44172000  1
  H  H170  1  0.37482000  0.09589000  0.13188000  1
  H  H171  1  0.23399000  0.09342000  0.25148000  1
  H  H172  1  0.26921000  0.17224000  0.22325000  1
  H  H173  1  0.33954000  0.17370000  0.16408000  1
  H  H174  1  0.17308000  0.96054000  0.22519000  1
  H  H175  1  0.11040000  0.96478000  0.29049000  1
  H  H176  1  0.27056000  0.91973000  0.22139000  1
  H  H177  1  0.33537000  0.91982000  0.15714000  1
  H  H178  1  0.06815000  0.18506000  0.57660000  1
  H  H179  1  0.03761000  0.32174000  0.69613000  1
  H  H180  1  0.07899000  0.33800000  0.61669000  1
  H  H181  1  0.09575000  0.26910000  0.55785000  1
  H  H182  1  0.09680000  0.37927000  0.86815000  1
  H  H183  1  0.10382000  0.23515000  0.75268000  1
  H  H184  1  0.18038000  0.27256000  0.78476000  1
  H  H185  1  0.17694000  0.34529000  0.84127000  1
  H  H186  1  0.97958000  0.17246000  0.77853000  1
  H  H187  1  0.97827000  0.10904000  0.71419000  1
  H  H188  1  0.92813000  0.26796000  0.77289000  1
  H  H189  1  0.92293000  0.33239000  0.83743000  1
  H  H190  1  0.31085000  0.92545000  0.06306000  1
  H  H191  1  0.17499000  0.80440000  0.03646000  1
  H  H192  1  0.15845000  0.88504000  0.07500000  1
  H  H193  1  0.22708000  0.94479000  0.08923000  1
  H  H194  1  0.11736000  0.63147000  0.09602000  1
  H  H195  1  0.25619000  0.75309000  0.10493000  1
  H  H196  1  0.21505000  0.72418000  0.18071000  1
  H  H197  1  0.14551000  0.66403000  0.17622000  1
  H  H198  1  0.32501000  0.72181000  0.97462000  1
  H  H199  1  0.38771000  0.78724000  0.97250000  1
  H  H200  1  0.23089000  0.72073000  0.92684000  1
  H  H201  1  0.16597000  0.65664000  0.92457000  1
  H  H202  1  0.94704000  0.19663000  0.42835000  1
  H  H203  1  0.98065000  0.32518000  0.30148000  1
  H  H204  1  0.95072000  0.34810000  0.38408000  1
  H  H205  1  0.93375000  0.28347000  0.44700000  1
  H  H206  1  0.90316000  0.37507000  0.13065000  1
  H  H207  1  0.90249000  0.23630000  0.25290000  1
  H  H208  1  0.82417000  0.27244000  0.22348000  1
  H  H209  1  0.82432000  0.34173000  0.16257000  1
  H  H210  1  0.02247000  0.17098000  0.22047000  1
  H  H211  1  0.02246000  0.10852000  0.28589000  1
  H  H212  1  0.07680000  0.27089000  0.22190000  1
  H  H213  1  0.07826000  0.33680000  0.15904000  1
  H  H214  1  0.78646000  0.43105000  0.01022000  1
  H  H215  1  0.68224000  0.29028000  0.95511000  1
  H  H216  1  0.64870000  0.37478000  0.95944000  1
  H  H217  1  0.70158000  0.44440000  0.98774000  1
  H  H218  1  0.59739000  0.17517000  0.07732000  1
  H  H219  1  0.74885000  0.28069000  0.07392000  1
  H  H220  1  0.68703000  0.29047000  0.13977000  1
  H  H221  1  0.61075000  0.23928000  0.14041000  1
  H  H222  1  0.83972000  0.21404000  0.98803000  1
  H  H223  1  0.89749000  0.28214000  0.00470000  1
  H  H224  1  0.76101000  0.17593000  0.92594000  1
  H  H225  1  0.68961000  0.11959000  0.93221000  1
  H  H226  1  0.63554000  0.87969000  0.09495000  1
  H  H227  1  0.76834000  0.75113000  0.09288000  1
  H  H228  1  0.74136000  0.78873000  0.17121000  1
  H  H229  1  0.67557000  0.85317000  0.17221000  1
  H  H230  1  0.81156000  0.57741000  0.06398000  1
  H  H231  1  0.67586000  0.69671000  0.02890000  1
  H  H232  1  0.65888000  0.61780000  0.07080000  1
  H  H233  1  0.72703000  0.55860000  0.08871000  1
  H  H234  1  0.72303000  0.77204000  0.91972000  1
  H  H235  1  0.65866000  0.83694000  0.91933000  1
  H  H236  1  0.82543000  0.77395000  0.95997000  1
  H  H237  1  0.88866000  0.70903000  0.96372000  1
  H  H238  1  0.09517000  0.88546000  0.36153000  1
  H  H239  1  0.09973000  0.76058000  0.22522000  1
  H  H240  1  0.17572000  0.80314000  0.25179000  1
  H  H241  1  0.17346000  0.86562000  0.31951000  1
  H  H242  1  0.06814000  0.57769000  0.18396000  1
  H  H243  1  0.04949000  0.70242000  0.31774000  1
  H  H244  1  0.09372000  0.62453000  0.33269000  1
  H  H245  1  0.10256000  0.56219000  0.26568000  1
  H  H246  1  0.92781000  0.76485000  0.27968000  1
  H  H247  1  0.92531000  0.82796000  0.34529000  1
  H  H248  1  0.96388000  0.77390000  0.17687000  1
  H  H249  1  0.96200000  0.70858000  0.11417000  1
  H  H250  1  0.38794000  0.13896000  0.90255000  1
  H  H251  1  0.26219000  0.27454000  0.89679000  1
  H  H252  1  0.30720000  0.24991000  0.82140000  1
  H  H253  1  0.37021000  0.18258000  0.82418000  1
  H  H254  1  0.07367000  0.31157000  0.93714000  1
  H  H255  1  0.20320000  0.18162000  0.94852000  1
  H  H256  1  0.12437000  0.16532000  0.90665000  1
  H  H257  1  0.06014000  0.23087000  0.90080000  1
  H  H258  1  0.26427000  0.21958000  0.06840000  1
  H  H259  1  0.32657000  0.15361000  0.07261000  1
  H  H260  1  0.27662000  0.32466000  0.02827000  1
  H  H261  1  0.21112000  0.38708000  0.03151000  1
  H  H262  1  0.86061000  0.09417000  0.39051000  1
  H  H263  1  0.72445000  0.10165000  0.26612000  1
  H  H264  1  0.74788000  0.17567000  0.31359000  1
  H  H265  1  0.81599000  0.17181000  0.37550000  1
  H  H266  1  0.67159000  0.07858000  0.08485000  1
  H  H267  1  0.81231000  0.06631000  0.20289000  1
  H  H268  1  0.81736000  0.12109000  0.13056000  1
  H  H269  1  0.74654000  0.12770000  0.07224000  1
  H  H270  1  0.78688000  0.92988000  0.26012000  1
  H  H271  1  0.85161000  0.92732000  0.32437000  1
  H  H272  1  0.68419000  0.95432000  0.26843000  1
  H  H273  1  0.62077000  0.95174000  0.20319000  1
  H  H274  1  0.69441000  0.94148000  0.92063000  1
  H  H275  1  0.82209000  0.97751000  0.79275000  1
  H  H276  1  0.84414000  0.93470000  0.86969000  1
  H  H277  1  0.78000000  0.91606000  0.93300000  1
  H  H278  1  0.90158000  0.09035000  0.65490000  1
  H  H279  1  0.76367000  0.10057000  0.77748000  1
  H  H280  1  0.82238000  0.16946000  0.76804000  1
  H  H281  1  0.89023000  0.16500000  0.70627000  1
  H  H282  1  0.67239000  0.04733000  0.72397000  1
  H  H283  1  0.60977000  0.04151000  0.78958000  1
  H  H284  1  0.74150000  0.94085000  0.69944000  1
  H  H285  1  0.80829000  0.93365000  0.63784000  1
  H  H286  1  0.99596000  0.71326000  0.93679000  1
  H  H287  1  0.04063000  0.82017000  0.79409000  1
  H  H288  1  0.04368000  0.85172000  0.87914000  1
  H  H289  1  0.01899000  0.79796000  0.94963000  1
  H  H290  1  0.91665000  0.90450000  0.66890000  1
  H  H291  1  0.91665000  0.75663000  0.77993000  1
  H  H292  1  0.84650000  0.81531000  0.78071000  1
  H  H293  1  0.84756000  0.88983000  0.72665000  1
  H  H294  1  0.99414000  0.66618000  0.71741000  1
  H  H295  1  0.98983000  0.60609000  0.78432000  1
  H  H296  1  0.07337000  0.74609000  0.68968000  1
  H  H297  1  0.06782000  0.81343000  0.62896000  1
  H  H298  1  0.36696000  0.90429000  0.88256000  1
  H  H299  1  0.24145000  0.89737000  0.74706000  1
  H  H300  1  0.26987000  0.82118000  0.78779000  1
  H  H301  1  0.33211000  0.82463000  0.85564000  1
  H  H302  1  0.07367000  0.93655000  0.69114000  1
  H  H303  1  0.19263000  0.97369000  0.82685000  1
  H  H304  1  0.11166000  0.93607000  0.84521000  1
  H  H305  1  0.05310000  0.91586000  0.77692000  1
  H  H306  1  0.28003000  0.07242000  0.76643000  1
  H  H307  1  0.34544000  0.07520000  0.82983000  1
  H  H308  1  0.27869000  0.01818000  0.67526000  1
  H  H309  1  0.21584000  0.01958000  0.61033000  1
  H  H310  1  0.84260000  0.25901000  0.93846000  1
  H  H311  1  0.84827000  0.27845000  0.04947000  1
  H  H312  1  0.32118000  0.80599000  0.45572000  1
  H  H313  1  0.24123000  0.75130000  0.39568000  1
  C  C314  1  0.45641000  0.70862000  0.71638000  1
  C  C315  1  0.45502000  0.66878000  0.68173000  1
  C  C316  1  0.40983000  0.64273000  0.67450000  1
  C  C317  1  0.41266000  0.72130000  0.74285000  1
  C  C318  1  0.36853000  0.69514000  0.73514000  1
  C  C319  1  0.36705000  0.65623000  0.70102000  1
  C  C320  1  0.99279000  0.18186000  0.74150000  1
  C  C321  1  0.99265000  0.14558000  0.70477000  1
  C  C322  1  0.54117000  0.30180000  0.72648000  1
  C  C323  1  0.54068000  0.34165000  0.69175000  1
  C  C324  1  0.57991000  0.37690000  0.69277000  1
  C  C325  1  0.58274000  0.29651000  0.75854000  1
  C  C326  1  0.62051000  0.33215000  0.75937000  1
  C  C327  1  0.61860000  0.37269000  0.72720000  1
  C  C328  1  0.53752000  0.79157000  0.21580000  1
  C  C329  1  0.53919000  0.82828000  0.17934000  1
  C  C330  1  0.00044000  0.67861000  0.75536000  1
  C  C331  1  0.99700000  0.64466000  0.79390000  1
  C  C332  1  0.01169000  0.18180000  0.25786000  1
  C  C333  1  0.01075000  0.14603000  0.29525000  1
  C  C334  1  0.48659000  0.31702000  0.25857000  1
  C  C335  1  0.48836000  0.35336000  0.29540000  1
  C  C336  1  0.96185000  0.78417000  0.28973000  1
  C  C337  1  0.96051000  0.81970000  0.32720000  1
  C  C338  1  0.72837000  0.45844000  0.68933000  1
  C  C339  1  0.69072000  0.46099000  0.65413000  1
  C  C340  1  0.24465000  0.51286000  0.18364000  1
  C  C341  1  0.20664000  0.52136000  0.14757000  1
  C  C342  1  0.21888000  0.54948000  0.10463000  1
  C  C343  1  0.29416000  0.52726000  0.17287000  1
  C  C344  1  0.30556000  0.55206000  0.12870000  1
  C  C345  1  0.26787000  0.56415000  0.09525000  1
  C  C346  1  0.70232000  0.55201000  0.28205000  1
  C  C347  1  0.66557000  0.55040000  0.32003000  1
  C  C348  1  0.64029000  0.59472000  0.33333333  1
  C  C349  1  0.71185000  0.59767000  0.25756000  1
  C  C350  1  0.68611000  0.64088000  0.27101000  1
  C  C351  1  0.65054000  0.63943000  0.30883000  1
  C  C352  1  0.74344000  0.98748000  0.81198000  1
  C  C353  1  0.70725000  0.98004000  0.84983000  1
  C  C354  1  0.72093000  0.95212000  0.89248000  1
  C  C355  1  0.79292000  0.97094000  0.81993000  1
  C  C356  1  0.80600000  0.94642000  0.86376000  1
  C  C357  1  0.76994000  0.93627000  0.89953000  1
  C  C358  1  0.24471000  0.01689000  0.31679000  1
  C  C359  1  0.20676000  0.02227000  0.35341000  1
  C  C360  1  0.21926000  0.04814000  0.39785000  1
  C  C361  1  0.29401000  0.03208000  0.32782000  1
  C  C362  1  0.30524000  0.05528000  0.37280000  1
  C  C363  1  0.26779000  0.06408000  0.40735000  1
  C  C364  1  0.27966000  0.53599000  0.70236000  1
  C  C365  1  0.31598000  0.53710000  0.66569000  1
  C  C366  1  0.28698000  0.94748000  0.79222000  1
  C  C367  1  0.32369000  0.94932000  0.83028000  1
  C  C368  1  0.33932000  0.90446000  0.85314000  1
  C  C369  1  0.26835000  0.90062000  0.77694000  1
  C  C370  1  0.28460000  0.85680000  0.79979000  1
  C  C371  1  0.31976000  0.85874000  0.83794000  1
  C  C372  1  0.79570000  0.96334000  0.28088000  1
  C  C373  1  0.83239000  0.96209000  0.31708000  1
  C  C374  1  0.68736000  0.73055000  0.45976000  1
  C  C375  1  0.65358000  0.69150000  0.46143000  1
  C  C376  1  0.21459000  0.20676000  0.44808000  1
  C  C377  1  0.17520000  0.17142000  0.44932000  1
  C  C378  1  0.15625000  0.15247000  0.40397000  1
  C  C379  1  0.23614000  0.21926000  0.40163000  1
  C  C380  1  0.21754000  0.19920000  0.35739000  1
  C  C381  1  0.17744000  0.16627000  0.35852000  1
  C  C382  1  0.28409000  0.20926000  0.03473000  1
  C  C383  1  0.31920000  0.17133000  0.03724000  1
  C  C384  1  0.70592000  0.27953000  0.53912000  1
  C  C385  1  0.66530000  0.31325000  0.54075000  1
  C  C386  1  0.63510000  0.31491000  0.58388000  1
  C  C387  1  0.71647000  0.25006000  0.58155000  1
  C  C388  1  0.68602000  0.25209000  0.62354000  1
  C  C389  1  0.64510000  0.28385000  0.62439000  1
  C  C390  1  0.71642000  0.79294000  0.04608000  1
  C  C391  1  0.67862000  0.82998000  0.04694000  1
  C  C392  1  0.66415000  0.85125000  0.09292000  1
  C  C393  1  0.73885000  0.77863000  0.09162000  1
  C  C394  1  0.72389000  0.80009000  0.13663000  1
  C  C395  1  0.68677000  0.83635000  0.13726000  1
  C  C396  1  0.18667000  0.76148000  0.51535000  1
  C  C397  1  0.14973000  0.79783000  0.51618000  1
  C  C398  1  0.31613000  0.75848000  0.98908000  1
  C  C399  1  0.35163000  0.79570000  0.98852000  1
  C  C400  1  0.83047000  0.25309000  0.97764000  1
  C  C401  1  0.85673000  0.28754000  0.00991000  1
  C  C402  1  0.71748000  0.46298000  0.29395000  1
  C  C403  1  0.68125000  0.46136000  0.33077000  1
  C  C404  1  0.68187000  0.02947000  0.75898000  1
  C  C405  1  0.64627000  0.02536000  0.79580000  1
  C  C406  1  0.18242000  0.97753000  0.26061000  1
  C  C407  1  0.14686000  0.98062000  0.29778000  1
  C  C408  1  0.29204000  0.03800000  0.78385000  1
  C  C409  1  0.32902000  0.03960000  0.82005000  1
  C  C410  1  0.78054000  0.05316000  0.29922000  1
  C  C411  1  0.81883000  0.05059000  0.33576000  1
  C  C412  1  0.83129000  0.09416000  0.36279000  1
  C  C413  1  0.75479000  0.09858000  0.29237000  1
  C  C414  1  0.76765000  0.14097000  0.31964000  1
  C  C415  1  0.80595000  0.13879000  0.35458000  1
  C  C416  1  0.70221000  0.53880000  0.72316000  1
  C  C417  1  0.66146000  0.53961000  0.68977000  1
  C  C418  1  0.62816000  0.58047000  0.69111000  1
  C  C419  1  0.71066000  0.58052000  0.75434000  1
  C  C420  1  0.67708000  0.62003000  0.75551000  1
  C  C421  1  0.63550000  0.61958000  0.72465000  1
  C  C422  1  0.18309000  0.47700000  0.23975000  1
  C  C423  1  0.14651000  0.48211000  0.20340000  1
  C  C424  1  0.29200000  0.44639000  0.71219000  1
  C  C425  1  0.33116000  0.44823000  0.67676000  1
  C  C426  1  0.35565000  0.40363000  0.66317000  1
  C  C427  1  0.27735000  0.39974000  0.73185000  1
  C  C428  1  0.30192000  0.35616000  0.71781000  1
  C  C429  1  0.34097000  0.35811000  0.68370000  1
  C  C430  1  0.01761000  0.74505000  0.81477000  1
  C  C431  1  0.00925000  0.71178000  0.85503000  1
  C  C432  1  0.00825000  0.73270000  0.90401000  1
  C  C433  1  0.03160000  0.79489000  0.82422000  1
  C  C434  1  0.03359000  0.81319000  0.87264000  1
  C  C435  1  0.02045000  0.78263000  0.91225000  1
  C  C436  1  0.98491000  0.24527000  0.31686000  1
  C  C437  1  0.97985000  0.20820000  0.35442000  1
  C  C438  1  0.95843000  0.22290000  0.40045000  1
  C  C439  1  0.97512000  0.29577000  0.32855000  1
  C  C440  1  0.95799000  0.30932000  0.37555000  1
  C  C441  1  0.94874000  0.27289000  0.41106000  1
  C  C442  1  0.54308000  0.72482000  0.69398000  1
  C  C443  1  0.54138000  0.68653000  0.65928000  1
  C  C444  1  0.02711000  0.24208000  0.68274000  1
  C  C445  1  0.03096000  0.20387000  0.64639000  1
  C  C446  1  0.05796000  0.21409000  0.60230000  1
  C  C447  1  0.04273000  0.29094000  0.67055000  1
  C  C448  1  0.06632000  0.30065000  0.62528000  1
  C  C449  1  0.07520000  0.26201000  0.59188000  1
  C  C450  1  0.50692000  0.25321000  0.31968000  1
  C  C451  1  0.51526000  0.29077000  0.35604000  1
  C  C452  1  0.53686000  0.27583000  0.40200000  1
  C  C453  1  0.51100000  0.20241000  0.33333333  1
  C  C454  1  0.52828000  0.18890000  0.38033000  1
  C  C455  1  0.54252000  0.22554000  0.41405000  1
  C  C456  1  0.05126000  0.79801000  0.27889000  1
  C  C457  1  0.04990000  0.83416000  0.31742000  1
  C  C458  1  0.09452000  0.85834000  0.33165000  1
  C  C459  1  0.09709000  0.78775000  0.25498000  1
  C  C460  1  0.14070000  0.81201000  0.26974000  1
  C  C461  1  0.13944000  0.84716000  0.30795000  1
  C  C462  1  0.46298000  0.27088000  0.69170000  1
  C  C463  1  0.46466000  0.30749000  0.65524000  1
  C  C464  1  0.44677000  0.78839000  0.20917000  1
  C  C465  1  0.44888000  0.82362000  0.16971000  1
  C  C466  1  0.40431000  0.83756000  0.14531000  1
  C  C467  1  0.39965000  0.77137000  0.22559000  1
  C  C468  1  0.35611000  0.78575000  0.20101000  1
  C  C469  1  0.35854000  0.81802000  0.16045000  1
  C  C470  1  0.72271000  0.70364000  0.53921000  1
  C  C471  1  0.68917000  0.66286000  0.54026000  1
  C  C472  1  0.69068000  0.62962000  0.58109000  1
  C  C473  1  0.75628000  0.71042000  0.57928000  1
  C  C474  1  0.75752000  0.67679000  0.61881000  1
  C  C475  1  0.72519000  0.63632000  0.61945000  1
  C  C476  1  0.21125000  0.21259000  0.53884000  1
  C  C477  1  0.17467000  0.17600000  0.54013000  1
  C  C478  1  0.72601000  0.30790000  0.45500000  1
  C  C479  1  0.68768000  0.34254000  0.45751000  1
  C  C480  1  0.71084000  0.78793000  0.95480000  1
  C  C481  1  0.67412000  0.82417000  0.95439000  1
  C  C482  1  0.24199000  0.81761000  0.47028000  1
  C  C483  1  0.20250000  0.85275000  0.46653000  1
  C  C484  1  0.20948000  0.89486000  0.43566000  1
  C  C485  1  0.28926000  0.83007000  0.45058000  1
  C  C486  1  0.29598000  0.87365000  0.42312000  1
  C  C487  1  0.25582000  0.90523000  0.41452000  1
  C  C488  1  0.29907000  0.22054000  0.94522000  1
  C  C489  1  0.33516000  0.18209000  0.94655000  1
  C  C490  1  0.36053000  0.16858000  0.90257000  1
  C  C491  1  0.28943000  0.24486000  0.89949000  1
  C  C492  1  0.31500000  0.23110000  0.85626000  1
  C  C493  1  0.35051000  0.19314000  0.85781000  1
  C  C494  1  0.25469000  0.81744000  0.02578000  1
  C  C495  1  0.29311000  0.85369000  0.02869000  1
  C  C496  1  0.28245000  0.89877000  0.05401000  1
  C  C497  1  0.20582000  0.83002000  0.04106000  1
  C  C498  1  0.19591000  0.87601000  0.06295000  1
  C  C499  1  0.23441000  0.90978000  0.07053000  1
  C  C500  1  0.75735000  0.31116000  0.97813000  1
  C  C501  1  0.78954000  0.35142000  0.99036000  1
  C  C502  1  0.76762000  0.39946000  0.99466000  1
  C  C503  1  0.70692000  0.32034000  0.96609000  1
  C  C504  1  0.68751000  0.36829000  0.96820000  1
  C  C505  1  0.71751000  0.40755000  0.98342000  1
  C  C506  1  0.50953000  0.82040000  0.75542000  1
  C  C507  1  0.50698000  0.85485000  0.79375000  1
  C  C508  1  0.05370000  0.28624000  0.79138000  1
  C  C509  1  0.05183000  0.32603000  0.82608000  1
  C  C510  1  0.09680000  0.34801000  0.84258000  1
  C  C511  1  0.10070000  0.26688000  0.77741000  1
  C  C512  1  0.14466000  0.28795000  0.79559000  1
  C  C513  1  0.14273000  0.32887000  0.82749000  1
  C  C514  1  0.47308000  0.68216000  0.25712000  1
  C  C515  1  0.46906000  0.64653000  0.29611000  1
  C  C516  1  0.44014000  0.60330000  0.28739000  1
  C  C517  1  0.45589000  0.66950000  0.20890000  1
  C  C518  1  0.43033000  0.62504000  0.20065000  1
  C  C519  1  0.42129000  0.59268000  0.24012000  1
  C  C520  1  0.49143000  0.18094000  0.75693000  1
  C  C521  1  0.49350000  0.14500000  0.79415000  1
  C  C522  1  0.95018000  0.28542000  0.20891000  1
  C  C523  1  0.94989000  0.32449000  0.17362000  1
  C  C524  1  0.90424000  0.34461000  0.15714000  1
  C  C525  1  0.90414000  0.26658000  0.22628000  1
  C  C526  1  0.85918000  0.28685000  0.20952000  1
  C  C527  1  0.85923000  0.32585000  0.17516000  1
  C  C528  1  0.95942000  0.79784000  0.72469000  1
  C  C529  1  0.95915000  0.83876000  0.69175000  1
  C  C530  1  0.91833000  0.87216000  0.69295000  1
  C  C531  1  0.91812000  0.78908000  0.75595000  1
  C  C532  1  0.87803000  0.82214000  0.75640000  1
  C  C533  1  0.87850000  0.86399000  0.72561000  1
  C  C534  1  0.54553000  0.20352000  0.22020000  1
  C  C535  1  0.54523000  0.16420000  0.18484000  1
  C  C536  1  0.58856000  0.13485000  0.17873000  1
  C  C537  1  0.59023000  0.21414000  0.24611000  1
  C  C538  1  0.63263000  0.18492000  0.23917000  1
  C  C539  1  0.63164000  0.14517000  0.20592000  1
  C  C540  1  0.02979000  0.68523000  0.24055000  1
  C  C541  1  0.03178000  0.64804000  0.20295000  1
  C  C542  1  0.06041000  0.60474000  0.21237000  1
  C  C543  1  0.05167000  0.67571000  0.28758000  1
  C  C544  1  0.07700000  0.63131000  0.29661000  1
  C  C545  1  0.08185000  0.59617000  0.25892000  1
  C  C546  1  0.27564000  0.53199000  0.29956000  1
  C  C547  1  0.31245000  0.53417000  0.33586000  1
  C  C548  1  0.75275000  0.49260000  0.81577000  1
  C  C549  1  0.78812000  0.50358000  0.85330000  1
  C  C550  1  0.76984000  0.52046000  0.90004000  1
  C  C551  1  0.70162000  0.48946000  0.82823000  1
  C  C552  1  0.68512000  0.50264000  0.87561000  1
  C  C553  1  0.71899000  0.51973000  0.91086000  1
  C  C554  1  0.28496000  0.95497000  0.20783000  1
  C  C555  1  0.32205000  0.95474000  0.17205000  1
  C  C556  1  0.76040000  0.48514000  0.18699000  1
  C  C557  1  0.79708000  0.48454000  0.15058000  1
  C  C558  1  0.76764000  0.97138000  0.69487000  1
  C  C559  1  0.80542000  0.96712000  0.66030000  1
  C  C560  1  0.24569000  0.47837000  0.81705000  1
  C  C561  1  0.20796000  0.47415000  0.85389000  1
  C  C562  1  0.22029000  0.45021000  0.89932000  1
  C  C563  1  0.29554000  0.46658000  0.82958000  1
  C  C564  1  0.30706000  0.44624000  0.87592000  1
  C  C565  1  0.26934000  0.43676000  0.91016000  1
  C  C566  1  0.73766000  0.03855000  0.18628000  1
  C  C567  1  0.69863000  0.03888000  0.15041000  1
  C  C568  1  0.70200000  0.07301000  0.11036000  1
  C  C569  1  0.78085000  0.06751000  0.17775000  1
  C  C570  1  0.78415000  0.09885000  0.13649000  1
  C  C571  1  0.74446000  0.10221000  0.10339000  1
  C  C572  1  0.24095000  0.00712000  0.68457000  1
  C  C573  1  0.20510000  0.00696000  0.64716000  1
  C  C574  1  0.31292000  0.26224000  0.51914000  1
  C  C575  1  0.34962000  0.29881000  0.51948000  1
  C  C576  1  0.81211000  0.75540000  0.48255000  1
  C  C577  1  0.85268000  0.78893000  0.48886000  1
  C  C578  1  0.90152000  0.76786000  0.48810000  1
  C  C579  1  0.82124000  0.70482000  0.47053000  1
  C  C580  1  0.86948000  0.68632000  0.46812000  1
  C  C581  1  0.90941000  0.71749000  0.47792000  1
  C  C582  1  0.18537000  0.25861000  0.96866000  1
  C  C583  1  0.14734000  0.29562000  0.96832000  1
  C  C584  1  0.10251000  0.28454000  0.94271000  1
  C  C585  1  0.17585000  0.21127000  0.94738000  1
  C  C586  1  0.13085000  0.20140000  0.92353000  1
  C  C587  1  0.09456000  0.23815000  0.92065000  1
  C  C588  1  0.28984000  0.71031000  0.44647000  1
  C  C589  1  0.32884000  0.67452000  0.44861000  1
  C  C590  1  0.35138000  0.65831000  0.40384000  1
  C  C591  1  0.27233000  0.72592000  0.39925000  1
  C  C592  1  0.29524000  0.70954000  0.35552000  1
  C  C593  1  0.33500000  0.67629000  0.35788000  1
  C  C594  1  0.81651000  0.73864000  0.97735000  1
  C  C595  1  0.85249000  0.70181000  0.98030000  1
  C  C596  1  0.82149000  0.24618000  0.49051000  1
  C  C597  1  0.85632000  0.20827000  0.49547000  1
  C  C598  1  0.70746000  0.22350000  0.03347000  1
  C  C599  1  0.66483000  0.19192000  0.03503000  1
  C  C600  1  0.63042000  0.19796000  0.07445000  1
  C  C601  1  0.71554000  0.25788000  0.07251000  1
  C  C602  1  0.68077000  0.26333000  0.11061000  1
  C  C603  1  0.63798000  0.23410000  0.11114000  1
  C  C604  1  0.20936000  0.71001000  0.05417000  1
  C  C605  1  0.17060000  0.67423000  0.05155000  1
  C  C606  1  0.14764000  0.65817000  0.09625000  1
  C  C607  1  0.22574000  0.72686000  0.10133000  1
  C  C608  1  0.20266000  0.71035000  0.14486000  1
  C  C609  1  0.16350000  0.67641000  0.14232000  1
  C  C610  1  0.28537000  0.04648000  0.20911000  1
  C  C611  1  0.32476000  0.04746000  0.17381000  1
  C  C612  1  0.34425000  0.09379000  0.15817000  1
  C  C613  1  0.26511000  0.09222000  0.22583000  1
  C  C614  1  0.28476000  0.13755000  0.20969000  1
  C  C615  1  0.32446000  0.13834000  0.17633000  1
  C  C616  1  0.81580000  0.53025000  0.24317000  1
  C  C617  1  0.85226000  0.53259000  0.20487000  1
  C  C618  1  0.89548000  0.56166000  0.21330000  1
  C  C619  1  0.82631000  0.55149000  0.29026000  1
  C  C620  1  0.87062000  0.57738000  0.29838000  1
  C  C621  1  0.90465000  0.58330000  0.25971000  1
  C  C622  1  0.79800000  0.05389000  0.72029000  1
  C  C623  1  0.83768000  0.05068000  0.68558000  1
  C  C624  1  0.87078000  0.09133000  0.68084000  1
  C  C625  1  0.79312000  0.09707000  0.75005000  1
  C  C626  1  0.82631000  0.13669000  0.74481000  1
  C  C627  1  0.86476000  0.13398000  0.71009000  1
  C  C628  1  0.68825000  0.97772000  0.23578000  1
  C  C629  1  0.65230000  0.97659000  0.19877000  1
  C  C630  1  0.18029000  0.97866000  0.74651000  1
  C  C631  1  0.14420000  0.97300000  0.70845000  1
  C  C632  1  0.09947000  0.94767000  0.71976000  1
  C  C633  1  0.16719000  0.96698000  0.79623000  1
  C  C634  1  0.12111000  0.94549000  0.80710000  1
  C  C635  1  0.08795000  0.93452000  0.76874000  1
  C  C636  1  0.29767000  0.44569000  0.28134000  1
  C  C637  1  0.33483000  0.44771000  0.31918000  1
  C  C638  1  0.36068000  0.40367000  0.33221000  1
  C  C639  1  0.28943000  0.40038000  0.25587000  1
  C  C640  1  0.31523000  0.35727000  0.26971000  1
  C  C641  1  0.35014000  0.35875000  0.30819000  1
  C  C642  1  0.81951000  0.48645000  0.75450000  1
  C  C643  1  0.85462000  0.49008000  0.79215000  1
  C  C644  1  0.18388000  0.50856000  0.75777000  1
  C  C645  1  0.14798000  0.50920000  0.79489000  1
  C  C646  1  0.04173000  0.28530000  0.20790000  1
  C  C647  1  0.04268000  0.32320000  0.17259000  1
  C  C648  1  0.04111000  0.77045000  0.68998000  1
  C  C649  1  0.03825000  0.80926000  0.65613000  1
  C  C650  1  0.50399000  0.75249000  0.81538000  1
  C  C651  1  0.49707000  0.78737000  0.85467000  1
  C  C652  1  0.48607000  0.76788000  0.90278000  1
  C  C653  1  0.50575000  0.70087000  0.82612000  1
  C  C654  1  0.49785000  0.68341000  0.87424000  1
  C  C655  1  0.48712000  0.71676000  0.91223000  1
  C  C656  1  0.96221000  0.28331000  0.78829000  1
  C  C657  1  0.95908000  0.31987000  0.82445000  1
  C  C658  1  0.45937000  0.22314000  0.19836000  1
  C  C659  1  0.46017000  0.18664000  0.16171000  1
  C  C660  1  0.98249000  0.73887000  0.18451000  1
  C  C661  1  0.98195000  0.70170000  0.14864000  1
  C  C662  1  0.51342000  0.73963000  0.31468000  1
  C  C663  1  0.51410000  0.70306000  0.35135000  1
  C  C664  1  0.49747000  0.24646000  0.81923000  1
  C  C665  1  0.50764000  0.21022000  0.85636000  1
  C  C666  1  0.52479000  0.22779000  0.90331000  1
  C  C667  1  0.49379000  0.29728000  0.83274000  1
  C  C668  1  0.50655000  0.31288000  0.88050000  1
  C  C669  1  0.52384000  0.27845000  0.91510000  1
  C  C670  1  0.25857000  0.31598000  0.47009000  1
  C  C671  1  0.29737000  0.35198000  0.46720000  1
  C  C672  1  0.29004000  0.39400000  0.43621000  1
  C  C673  1  0.21199000  0.32644000  0.44768000  1
  C  C674  1  0.20533000  0.36928000  0.41908000  1
  C  C675  1  0.24460000  0.40242000  0.41242000  1
  C  C676  1  0.75320000  0.82259000  0.49813000  1
  C  C677  1  0.79196000  0.85660000  0.50027000  1
  C  C678  1  0.28616000  0.71042000  0.53746000  1
  C  C679  1  0.32250000  0.67358000  0.53930000  1
  C  C680  1  0.75535000  0.68243000  0.01842000  1
  C  C681  1  0.79397000  0.64657000  0.02422000  1
  C  C682  1  0.78308000  0.60308000  0.05229000  1
  C  C683  1  0.70650000  0.67098000  0.03455000  1
  C  C684  1  0.69637000  0.62605000  0.05849000  1
  C  C685  1  0.73471000  0.59262000  0.06827000  1
  C  C686  1  0.75446000  0.18509000  0.49032000  1
  C  C687  1  0.78919000  0.14682000  0.50153000  1
  C  C688  1  0.76968000  0.09967000  0.51571000  1
  C  C689  1  0.70341000  0.17326000  0.48460000  1
  C  C690  1  0.68607000  0.12548000  0.49475000  1
  C  C691  1  0.71886000  0.08924000  0.51184000  1
  C  C692  1  0.24072000  0.31621000  0.01178000  1
  C  C693  1  0.20328000  0.35190000  0.01325000  1
  C  C694  1  0.73470000  0.18030000  0.95626000  1
  C  C695  1  0.69382000  0.14887000  0.95979000  1
  C  C696  1  0.21445000  0.70759000  0.96132000  1
  C  C697  1  0.17766000  0.67166000  0.96023000  1
  C  C698  1  0.49955000  0.61767000  0.61740000  1
  C  C699  1  0.49865000  0.65703000  0.65461000  1
  C  C700  1  0.50164000  0.73484000  0.72380000  1
  C  C701  1  0.50031000  0.11761000  0.11755000  1
  C  C702  1  0.50204000  0.15619000  0.15573000  1
  C  C703  1  0.50112000  0.23119000  0.22853000  1
  C  C704  1  0.00200000  0.61766000  0.11787000  1
  C  C705  1  0.00610000  0.65611000  0.15701000  1
  C  C706  1  0.00643000  0.73126000  0.23005000  1
  C  C707  1  0.00295000  0.11774000  0.61768000  1
  C  C708  1  0.00952000  0.15633000  0.65645000  1
  C  C709  1  0.00894000  0.23011000  0.73075000  1
  C  C710  1  0.50053000  0.38240000  0.61760000  1
  C  C711  1  0.50204000  0.34384000  0.65590000  1
  C  C712  1  0.50022000  0.26815000  0.72803000  1
  C  C713  1  0.49925000  0.88241000  0.11756000  1
  C  C714  1  0.49549000  0.84402000  0.15585000  1
  C  C715  1  0.49192000  0.77095000  0.23075000  1
  C  C716  1  0.00004000  0.38243000  0.11748000  1
  C  C717  1  0.99830000  0.34388000  0.15531000  1
  C  C718  1  0.99650000  0.26683000  0.22651000  1
  C  C719  1  0.99945000  0.88171000  0.61953000  1
  C  C720  1  0.99899000  0.84361000  0.65749000  1
  C  C721  1  0.00349000  0.76422000  0.72502000  1
  C  C722  1  0.49772000  0.61771000  0.38210000  1
  C  C723  1  0.49270000  0.65616000  0.34278000  1
  C  C724  1  0.49311000  0.72987000  0.26763000  1
  C  C725  1  0.50107000  0.11821000  0.88230000  1
  C  C726  1  0.50210000  0.15841000  0.84411000  1
  C  C727  1  0.49438000  0.23155000  0.76885000  1
  C  C728  1  0.99993000  0.62020000  0.88163000  1
  C  C729  1  0.00115000  0.66002000  0.84386000  1
  C  C730  1  0.01022000  0.72843000  0.76540000  1
  C  C731  1  0.99822000  0.11814000  0.38228000  1
  C  C732  1  0.99517000  0.15803000  0.34381000  1
  C  C733  1  0.99870000  0.23107000  0.26811000  1
  C  C734  1  0.50134000  0.38181000  0.38231000  1
  C  C735  1  0.50308000  0.34152000  0.34426000  1
  C  C736  1  0.49676000  0.26726000  0.26995000  1
  C  C737  1  0.49965000  0.87971000  0.88152000  1
  C  C738  1  0.50027000  0.83969000  0.84345000  1
  C  C739  1  0.50733000  0.76961000  0.76570000  1
  C  C740  1  0.00069000  0.38048000  0.88160000  1
  C  C741  1  0.00511000  0.34233000  0.84368000  1
  C  C742  1  0.00870000  0.26676000  0.77140000  1
  C  C743  1  0.00049000  0.88168000  0.38035000  1
  C  C744  1  0.00408000  0.84432000  0.34144000  1
  C  C745  1  0.00680000  0.77248000  0.26606000  1
  C  C746  1  0.61756000  0.50018000  0.61746000  1
  C  C747  1  0.65632000  0.50023000  0.65512000  1
  C  C748  1  0.73344000  0.49617000  0.72474000  1
  C  C749  1  0.61781000  0.00186000  0.11769000  1
  C  C750  1  0.65682000  0.00647000  0.15617000  1
  C  C751  1  0.73227000  0.00984000  0.23000000  1
  C  C752  1  0.11803000  0.50141000  0.11781000  1
  C  C753  1  0.15752000  0.50286000  0.15664000  1
  C  C754  1  0.23227000  0.49110000  0.23001000  1
  C  C755  1  0.11772000  0.99766000  0.61791000  1
  C  C756  1  0.15613000  0.99197000  0.65714000  1
  C  C757  1  0.22919000  0.99372000  0.73363000  1
  C  C758  1  0.61750000  0.50079000  0.38246000  1
  C  C759  1  0.65547000  0.50456000  0.34406000  1
  C  C760  1  0.72863000  0.50782000  0.26983000  1
  C  C761  1  0.61987000  0.99941000  0.88149000  1
  C  C762  1  0.65866000  0.99995000  0.84303000  1
  C  C763  1  0.72968000  0.01095000  0.76681000  1
  C  C764  1  0.11998000  0.49800000  0.88148000  1
  C  C765  1  0.15922000  0.49275000  0.84324000  1
  C  C766  1  0.23251000  0.49332000  0.76825000  1
  C  C767  1  0.11807000  0.00131000  0.38232000  1
  C  C768  1  0.15782000  0.00270000  0.34398000  1
  C  C769  1  0.23254000  0.99745000  0.26955000  1
  C  C770  1  0.38242000  0.49870000  0.61739000  1
  C  C771  1  0.34364000  0.49451000  0.65485000  1
  C  C772  1  0.26838000  0.49139000  0.72681000  1
  C  C773  1  0.38241000  0.00037000  0.11750000  1
  C  C774  1  0.34375000  0.00211000  0.15539000  1
  C  C775  1  0.26745000  0.00003000  0.22732000  1
  C  C776  1  0.88150000  0.50188000  0.11990000  1
  C  C777  1  0.84336000  0.50717000  0.15902000  1
  C  C778  1  0.76935000  0.50746000  0.23316000  1
  C  C779  1  0.88154000  0.00127000  0.61944000  1
  C  C780  1  0.84296000  0.00689000  0.65683000  1
  C  C781  1  0.76464000  0.01346000  0.72537000  1
  C  C782  1  0.38231000  0.49837000  0.38246000  1
  C  C783  1  0.34341000  0.49328000  0.34458000  1
  C  C784  1  0.26889000  0.48877000  0.27108000  1
  C  C785  1  0.38245000  0.99948000  0.88241000  1
  C  C786  1  0.34424000  0.99590000  0.84399000  1
  C  C787  1  0.27018000  0.99261000  0.77031000  1
  C  C788  1  0.87918000  0.50047000  0.87961000  1
  C  C789  1  0.83988000  0.49933000  0.84152000  1
  C  C790  1  0.76884000  0.48886000  0.76577000  1
  C  C791  1  0.88243000  0.00083000  0.38246000  1
  C  C792  1  0.84399000  0.00488000  0.34433000  1
  C  C793  1  0.76916000  0.01022000  0.27072000  1
  C  C794  1  0.61748000  0.61768000  0.50031000  1
  C  C795  1  0.65488000  0.65699000  0.50061000  1
  C  C796  1  0.72240000  0.73636000  0.49773000  1
  C  C797  1  0.61791000  0.11763000  0.99975000  1
  C  C798  1  0.65819000  0.15489000  0.99775000  1
  C  C799  1  0.74083000  0.22055000  0.99275000  1
  C  C800  1  0.11746000  0.61745000  0.00077000  1
  C  C801  1  0.15559000  0.65543000  0.00450000  1
  C  C802  1  0.23025000  0.72833000  0.00946000  1
  C  C803  1  0.11758000  0.11758000  0.49929000  1
  C  C804  1  0.15602000  0.15586000  0.49590000  1
  C  C805  1  0.23107000  0.22875000  0.49336000  1
  C  C806  1  0.38247000  0.61758000  0.49932000  1
  C  C807  1  0.34427000  0.65600000  0.49547000  1
  C  C808  1  0.26992000  0.72965000  0.49166000  1
  C  C809  1  0.38250000  0.11763000  0.99891000  1
  C  C810  1  0.34476000  0.15636000  0.99471000  1
  C  C811  1  0.27331000  0.23329000  0.98961000  1
  C  C812  1  0.88198000  0.61767000  0.00146000  1
  C  C813  1  0.84229000  0.65595000  0.00334000  1
  C  C814  1  0.76657000  0.72941000  0.99780000  1
  C  C815  1  0.88098000  0.11974000  0.50066000  1
  C  C816  1  0.84137000  0.15832000  0.50047000  1
  C  C817  1  0.77079000  0.23503000  0.48848000  1
  C  C818  1  0.61764000  0.38249000  0.49989000  1
  C  C819  1  0.65662000  0.34473000  0.49941000  1
  C  C820  1  0.73481000  0.27584000  0.49498000  1
  C  C821  1  0.61758000  0.88255000  0.00017000  1
  C  C822  1  0.65628000  0.84479000  0.00182000  1
  C  C823  1  0.73108000  0.77126000  0.99991000  1
  C  C824  1  0.11770000  0.38198000  0.99762000  1
  C  C825  1  0.15621000  0.34250000  0.99244000  1
  C  C826  1  0.23227000  0.26982000  0.98980000  1
  C  C827  1  0.11785000  0.88229000  0.49774000  1
  C  C828  1  0.15706000  0.84381000  0.49256000  1
  C  C829  1  0.23279000  0.77067000  0.49267000  1
  C  C830  1  0.38207000  0.38230000  0.49812000  1
  C  C831  1  0.34261000  0.34392000  0.49408000  1
  C  C832  1  0.26764000  0.27006000  0.49445000  1
  C  C833  1  0.38006000  0.88150000  0.00200000  1
  C  C834  1  0.34092000  0.84329000  0.00740000  1
  C  C835  1  0.26618000  0.76930000  0.00832000  1
  C  C836  1  0.88088000  0.38018000  0.00026000  1
  C  C837  1  0.84116000  0.34127000  0.00028000  1
  C  C838  1  0.77523000  0.26198000  0.98067000  1
  C  C839  1  0.88035000  0.88086000  0.49937000  1
  C  C840  1  0.84192000  0.84110000  0.49660000  1
  C  C841  1  0.76294000  0.77228000  0.49031000  1
  O  O842  1  0.50000000  0.57234000  0.63200000  1
  O  O843  1  0.50000000  0.07234000  0.13200000  1
  O  O844  1  0.00000000  0.57234000  0.13200000  1
  O  O845  1  0.00000000  0.07234000  0.63200000  1
  O  O846  1  0.50000000  0.42766000  0.63200000  1
  O  O847  1  0.50000000  0.92766000  0.13200000  1
  O  O848  1  0.00000000  0.42766000  0.13200000  1
  O  O849  1  0.00000000  0.92766000  0.63200000  1
  O  O850  1  0.50000000  0.57234000  0.36800000  1
  O  O851  1  0.50000000  0.07234000  0.86800000  1
  O  O852  1  0.00000000  0.57234000  0.86800000  1
  O  O853  1  0.00000000  0.07234000  0.36800000  1
  O  O854  1  0.50000000  0.42766000  0.36800000  1
  O  O855  1  0.50000000  0.92766000  0.86800000  1
  O  O856  1  0.00000000  0.42766000  0.86800000  1
  O  O857  1  0.00000000  0.92766000  0.36800000  1
  O  O858  1  0.63200000  0.50000000  0.57234000  1
  O  O859  1  0.63200000  0.00000000  0.07234000  1
  O  O860  1  0.13200000  0.50000000  0.07234000  1
  O  O861  1  0.13200000  0.00000000  0.57234000  1
  O  O862  1  0.63200000  0.50000000  0.42766000  1
  O  O863  1  0.63200000  0.00000000  0.92766000  1
  O  O864  1  0.13200000  0.50000000  0.92766000  1
  O  O865  1  0.13200000  0.00000000  0.42766000  1
  O  O866  1  0.36800000  0.50000000  0.57234000  1
  O  O867  1  0.36800000  0.00000000  0.07234000  1
  O  O868  1  0.86800000  0.50000000  0.07234000  1
  O  O869  1  0.86800000  0.00000000  0.57234000  1
  O  O870  1  0.36800000  0.50000000  0.42766000  1
  O  O871  1  0.36800000  0.00000000  0.92766000  1
  O  O872  1  0.86800000  0.50000000  0.92766000  1
  O  O873  1  0.86800000  0.00000000  0.42766000  1
  O  O874  1  0.57234000  0.63200000  0.50000000  1
  O  O875  1  0.57234000  0.13200000  0.00000000  1
  O  O876  1  0.07234000  0.63200000  0.00000000  1
  O  O877  1  0.07234000  0.13200000  0.50000000  1
  O  O878  1  0.42766000  0.63200000  0.50000000  1
  O  O879  1  0.42766000  0.13200000  0.00000000  1
  O  O880  1  0.92766000  0.63200000  0.00000000  1
  O  O881  1  0.92766000  0.13200000  0.50000000  1
  O  O882  1  0.57234000  0.36800000  0.50000000  1
  O  O883  1  0.57234000  0.86800000  0.00000000  1
  O  O884  1  0.07234000  0.36800000  0.00000000  1
  O  O885  1  0.07234000  0.86800000  0.50000000  1
  O  O886  1  0.42766000  0.36800000  0.50000000  1
  O  O887  1  0.42766000  0.86800000  0.00000000  1
  O  O888  1  0.92766000  0.36800000  0.00000000  1
  O  O889  1  0.92766000  0.86800000  0.50000000  1
  O  O890  1  0.57234000  0.50000000  0.36800000  1
  O  O891  1  0.57234000  0.00000000  0.86800000  1
  O  O892  1  0.07234000  0.50000000  0.86800000  1
  O  O893  1  0.07234000  0.00000000  0.36800000  1
  O  O894  1  0.42766000  0.50000000  0.36800000  1
  O  O895  1  0.42766000  0.00000000  0.86800000  1
  O  O896  1  0.92766000  0.50000000  0.86800000  1
  O  O897  1  0.92766000  0.00000000  0.36800000  1
  O  O898  1  0.57234000  0.50000000  0.63200000  1
  O  O899  1  0.57234000  0.00000000  0.13200000  1
  O  O900  1  0.07234000  0.50000000  0.13200000  1
  O  O901  1  0.07234000  0.00000000  0.63200000  1
  O  O902  1  0.42766000  0.50000000  0.63200000  1
  O  O903  1  0.42766000  0.00000000  0.13200000  1
  O  O904  1  0.92766000  0.50000000  0.13200000  1
  O  O905  1  0.92766000  0.00000000  0.63200000  1
  O  O906  1  0.50000000  0.63200000  0.42766000  1
  O  O907  1  0.50000000  0.13200000  0.92766000  1
  O  O908  1  0.00000000  0.63200000  0.92766000  1
  O  O909  1  0.00000000  0.13200000  0.42766000  1
  O  O910  1  0.50000000  0.63200000  0.57234000  1
  O  O911  1  0.50000000  0.13200000  0.07234000  1
  O  O912  1  0.00000000  0.63200000  0.07234000  1
  O  O913  1  0.00000000  0.13200000  0.57234000  1
  O  O914  1  0.50000000  0.36800000  0.42766000  1
  O  O915  1  0.50000000  0.86800000  0.92766000  1
  O  O916  1  0.00000000  0.36800000  0.92766000  1
  O  O917  1  0.00000000  0.86800000  0.42766000  1
  O  O918  1  0.50000000  0.36800000  0.57234000  1
  O  O919  1  0.50000000  0.86800000  0.07234000  1
  O  O920  1  0.00000000  0.36800000  0.07234000  1
  O  O921  1  0.00000000  0.86800000  0.57234000  1
  O  O922  1  0.63200000  0.57234000  0.50000000  1
  O  O923  1  0.63200000  0.07234000  0.00000000  1
  O  O924  1  0.13200000  0.57234000  0.00000000  1
  O  O925  1  0.13200000  0.07234000  0.50000000  1
  O  O926  1  0.63200000  0.42766000  0.50000000  1
  O  O927  1  0.63200000  0.92766000  0.00000000  1
  O  O928  1  0.13200000  0.42766000  0.00000000  1
  O  O929  1  0.13200000  0.92766000  0.50000000  1
  O  O930  1  0.36800000  0.57234000  0.50000000  1
  O  O931  1  0.36800000  0.07234000  0.00000000  1
  O  O932  1  0.86800000  0.57234000  0.00000000  1
  O  O933  1  0.86800000  0.07234000  0.50000000  1
  O  O934  1  0.36800000  0.42766000  0.50000000  1
  O  O935  1  0.36800000  0.92766000  0.00000000  1
  O  O936  1  0.86800000  0.42766000  0.00000000  1
  O  O937  1  0.86800000  0.92766000  0.50000000  1
  O  O938  1  0.44839000  0.44839000  0.55161000  1
  O  O939  1  0.46152000  0.46152000  0.53848000  1
  O  O940  1  0.44839000  0.94839000  0.05161000  1
  O  O941  1  0.46152000  0.96152000  0.03848000  1
  O  O942  1  0.94839000  0.44839000  0.05161000  1
  O  O943  1  0.96152000  0.46152000  0.03848000  1
  O  O944  1  0.94839000  0.94839000  0.55161000  1
  O  O945  1  0.96152000  0.96152000  0.53848000  1
  O  O946  1  0.55161000  0.55161000  0.55161000  1
  O  O947  1  0.53848000  0.53848000  0.53848000  1
  O  O948  1  0.55161000  0.05161000  0.05161000  1
  O  O949  1  0.53848000  0.03848000  0.03848000  1
  O  O950  1  0.05161000  0.55161000  0.05161000  1
  O  O951  1  0.03848000  0.53848000  0.03848000  1
  O  O952  1  0.05161000  0.05161000  0.55161000  1
  O  O953  1  0.03848000  0.03848000  0.53848000  1
  O  O954  1  0.55161000  0.44839000  0.44839000  1
  O  O955  1  0.53848000  0.46152000  0.46152000  1
  O  O956  1  0.55161000  0.94839000  0.94839000  1
  O  O957  1  0.53848000  0.96152000  0.96152000  1
  O  O958  1  0.05161000  0.44839000  0.94839000  1
  O  O959  1  0.03848000  0.46152000  0.96152000  1
  O  O960  1  0.05161000  0.94839000  0.44839000  1
  O  O961  1  0.03848000  0.96152000  0.46152000  1
  O  O962  1  0.44839000  0.55161000  0.44839000  1
  O  O963  1  0.46152000  0.53848000  0.46152000  1
  O  O964  1  0.44839000  0.05161000  0.94839000  1
  O  O965  1  0.46152000  0.03848000  0.96152000  1
  O  O966  1  0.94839000  0.55161000  0.94839000  1
  O  O967  1  0.96152000  0.53848000  0.96152000  1
  O  O968  1  0.94839000  0.05161000  0.44839000  1
  O  O969  1  0.96152000  0.03848000  0.46152000  1
  O  O970  1  0.44839000  0.44839000  0.44839000  1
  O  O971  1  0.46152000  0.46152000  0.46152000  1
  O  O972  1  0.44839000  0.94839000  0.94839000  1
  O  O973  1  0.46152000  0.96152000  0.96152000  1
  O  O974  1  0.94839000  0.44839000  0.94839000  1
  O  O975  1  0.96152000  0.46152000  0.96152000  1
  O  O976  1  0.94839000  0.94839000  0.44839000  1
  O  O977  1  0.96152000  0.96152000  0.46152000  1
  O  O978  1  0.55161000  0.55161000  0.44839000  1
  O  O979  1  0.53848000  0.53848000  0.46152000  1
  O  O980  1  0.55161000  0.05161000  0.94839000  1
  O  O981  1  0.53848000  0.03848000  0.96152000  1
  O  O982  1  0.05161000  0.55161000  0.94839000  1
  O  O983  1  0.03848000  0.53848000  0.96152000  1
  O  O984  1  0.05161000  0.05161000  0.44839000  1
  O  O985  1  0.03848000  0.03848000  0.46152000  1
  O  O986  1  0.44839000  0.55161000  0.55161000  1
  O  O987  1  0.46152000  0.53848000  0.53848000  1
  O  O988  1  0.44839000  0.05161000  0.05161000  1
  O  O989  1  0.46152000  0.03848000  0.03848000  1
  O  O990  1  0.94839000  0.55161000  0.05161000  1
  O  O991  1  0.96152000  0.53848000  0.03848000  1
  O  O992  1  0.94839000  0.05161000  0.55161000  1
  O  O993  1  0.96152000  0.03848000  0.53848000  1
  O  O994  1  0.55161000  0.44839000  0.55161000  1
  O  O995  1  0.53848000  0.46152000  0.53848000  1
  O  O996  1  0.55161000  0.94839000  0.05161000  1
  O  O997  1  0.53848000  0.96152000  0.03848000  1
  O  O998  1  0.05161000  0.44839000  0.05161000  1
  O  O999  1  0.03848000  0.46152000  0.03848000  1
  O  O1000  1  0.05161000  0.94839000  0.55161000  1
  O  O1001  1  0.03848000  0.96152000  0.53848000  1
