# generated using pymatgen
data_Zr3Cr3H18C48(N3O14)2
_symmetry_space_group_name_H-M   'P 1'
_cell_length_a   26.02050000
_cell_length_b   26.02050000
_cell_length_c   26.02050000
_cell_angle_alpha   90.00000000
_cell_angle_beta   90.00000000
_cell_angle_gamma   90.00000000
_symmetry_Int_Tables_number   1
_chemical_formula_structural   Zr3Cr3H18C48(N3O14)2
_chemical_formula_sum   'Zr24 Cr24 H144 C384 N48 O224'
_cell_volume   17617.60678812
_cell_formula_units_Z   8
loop_
 _symmetry_equiv_pos_site_id
 _symmetry_equiv_pos_as_xyz
  1  'x, y, z'
loop_
 _atom_site_type_symbol
 _atom_site_label
 _atom_site_symmetry_multiplicity
 _atom_site_fract_x
 _atom_site_fract_y
 _atom_site_fract_z
 _atom_site_occupancy
  Zr  Zr0  1  0.48565000  0.51702000  0.59223000  1
  Zr  Zr1  1  0.01435000  0.48298000  0.09223000  1
  Zr  Zr2  1  0.98565000  0.98298000  0.40777000  1
  Zr  Zr3  1  0.51435000  0.01702000  0.90777000  1
  Zr  Zr4  1  0.59223000  0.48565000  0.51702000  1
  Zr  Zr5  1  0.90777000  0.51435000  0.01702000  1
  Zr  Zr6  1  0.09223000  0.01435000  0.48298000  1
  Zr  Zr7  1  0.40777000  0.98565000  0.98298000  1
  Zr  Zr8  1  0.51702000  0.59223000  0.48565000  1
  Zr  Zr9  1  0.01702000  0.90777000  0.51435000  1
  Zr  Zr10  1  0.48298000  0.09223000  0.01435000  1
  Zr  Zr11  1  0.98298000  0.40777000  0.98565000  1
  Zr  Zr12  1  0.51435000  0.48298000  0.40777000  1
  Zr  Zr13  1  0.98565000  0.51702000  0.90777000  1
  Zr  Zr14  1  0.01435000  0.01702000  0.59223000  1
  Zr  Zr15  1  0.48565000  0.98298000  0.09223000  1
  Zr  Zr16  1  0.40777000  0.51435000  0.48298000  1
  Zr  Zr17  1  0.09223000  0.48565000  0.98298000  1
  Zr  Zr18  1  0.90777000  0.98565000  0.51702000  1
  Zr  Zr19  1  0.59223000  0.01435000  0.01702000  1
  Zr  Zr20  1  0.48298000  0.40777000  0.51435000  1
  Zr  Zr21  1  0.98298000  0.09223000  0.48565000  1
  Zr  Zr22  1  0.51702000  0.90777000  0.98565000  1
  Zr  Zr23  1  0.01702000  0.59223000  0.01435000  1
  Cr  Cr24  1  0.29490000  0.50290000  0.79200000  1
  Cr  Cr25  1  0.20510000  0.49710000  0.29200000  1
  Cr  Cr26  1  0.79490000  0.99710000  0.20800000  1
  Cr  Cr27  1  0.70510000  0.00290000  0.70800000  1
  Cr  Cr28  1  0.79200000  0.29490000  0.50290000  1
  Cr  Cr29  1  0.70800000  0.70510000  0.00290000  1
  Cr  Cr30  1  0.29200000  0.20510000  0.49710000  1
  Cr  Cr31  1  0.20800000  0.79490000  0.99710000  1
  Cr  Cr32  1  0.50290000  0.79200000  0.29490000  1
  Cr  Cr33  1  0.00290000  0.70800000  0.70510000  1
  Cr  Cr34  1  0.49710000  0.29200000  0.20510000  1
  Cr  Cr35  1  0.99710000  0.20800000  0.79490000  1
  Cr  Cr36  1  0.70510000  0.49710000  0.20800000  1
  Cr  Cr37  1  0.79490000  0.50290000  0.70800000  1
  Cr  Cr38  1  0.20510000  0.00290000  0.79200000  1
  Cr  Cr39  1  0.29490000  0.99710000  0.29200000  1
  Cr  Cr40  1  0.20800000  0.70510000  0.49710000  1
  Cr  Cr41  1  0.29200000  0.29490000  0.99710000  1
  Cr  Cr42  1  0.70800000  0.79490000  0.50290000  1
  Cr  Cr43  1  0.79200000  0.20510000  0.00290000  1
  Cr  Cr44  1  0.49710000  0.20800000  0.70510000  1
  Cr  Cr45  1  0.99710000  0.29200000  0.29490000  1
  Cr  Cr46  1  0.50290000  0.70800000  0.79490000  1
  Cr  Cr47  1  0.00290000  0.79200000  0.20510000  1
  H  H48  1  0.79915000  0.86485000  0.54432000  1
  H  H49  1  0.86667000  0.68767000  0.53721000  1
  H  H50  1  0.93238000  0.76262000  0.52755000  1
  H  H51  1  0.81967000  0.63267000  0.52266000  1
  H  H52  1  0.74058000  0.57038000  0.52447000  1
  H  H53  1  0.64029000  0.69738000  0.48546000  1
  H  H54  1  0.70085000  0.13515000  0.04432000  1
  H  H55  1  0.63333000  0.31233000  0.03721000  1
  H  H56  1  0.56762000  0.23738000  0.02755000  1
  H  H57  1  0.68033000  0.36733000  0.02266000  1
  H  H58  1  0.75942000  0.42962000  0.02447000  1
  H  H59  1  0.85971000  0.30262000  0.98546000  1
  H  H60  1  0.29915000  0.63515000  0.45568000  1
  H  H61  1  0.36667000  0.81233000  0.46279000  1
  H  H62  1  0.43238000  0.73738000  0.47245000  1
  H  H63  1  0.31967000  0.86733000  0.47734000  1
  H  H64  1  0.24058000  0.92962000  0.47553000  1
  H  H65  1  0.14029000  0.80262000  0.51454000  1
  H  H66  1  0.20085000  0.36485000  0.95568000  1
  H  H67  1  0.13333000  0.18767000  0.96279000  1
  H  H68  1  0.06762000  0.26262000  0.97245000  1
  H  H69  1  0.18033000  0.13267000  0.97734000  1
  H  H70  1  0.25942000  0.07038000  0.97553000  1
  H  H71  1  0.35971000  0.19738000  0.01454000  1
  H  H72  1  0.54432000  0.79915000  0.86485000  1
  H  H73  1  0.53721000  0.86667000  0.68767000  1
  H  H74  1  0.52755000  0.93238000  0.76262000  1
  H  H75  1  0.52266000  0.81967000  0.63267000  1
  H  H76  1  0.52447000  0.74058000  0.57038000  1
  H  H77  1  0.48546000  0.64029000  0.69738000  1
  H  H78  1  0.95568000  0.20085000  0.36485000  1
  H  H79  1  0.96279000  0.13333000  0.18767000  1
  H  H80  1  0.97245000  0.06762000  0.26262000  1
  H  H81  1  0.97734000  0.18033000  0.13267000  1
  H  H82  1  0.97553000  0.25942000  0.07038000  1
  H  H83  1  0.01454000  0.35971000  0.19738000  1
  H  H84  1  0.04432000  0.70085000  0.13515000  1
  H  H85  1  0.03721000  0.63333000  0.31233000  1
  H  H86  1  0.02755000  0.56762000  0.23738000  1
  H  H87  1  0.02266000  0.68033000  0.36733000  1
  H  H88  1  0.02447000  0.75942000  0.42962000  1
  H  H89  1  0.98546000  0.85971000  0.30262000  1
  H  H90  1  0.45568000  0.29915000  0.63515000  1
  H  H91  1  0.46279000  0.36667000  0.81233000  1
  H  H92  1  0.47245000  0.43238000  0.73738000  1
  H  H93  1  0.47734000  0.31967000  0.86733000  1
  H  H94  1  0.47553000  0.24058000  0.92962000  1
  H  H95  1  0.51454000  0.14029000  0.80262000  1
  H  H96  1  0.86485000  0.54432000  0.79915000  1
  H  H97  1  0.68767000  0.53721000  0.86667000  1
  H  H98  1  0.76262000  0.52755000  0.93238000  1
  H  H99  1  0.63267000  0.52266000  0.81967000  1
  H  H100  1  0.57038000  0.52447000  0.74058000  1
  H  H101  1  0.69738000  0.48546000  0.64029000  1
  H  H102  1  0.36485000  0.95568000  0.20085000  1
  H  H103  1  0.18767000  0.96279000  0.13333000  1
  H  H104  1  0.26262000  0.97245000  0.06762000  1
  H  H105  1  0.13267000  0.97734000  0.18033000  1
  H  H106  1  0.07038000  0.97553000  0.25942000  1
  H  H107  1  0.19738000  0.01454000  0.35971000  1
  H  H108  1  0.13515000  0.04432000  0.70085000  1
  H  H109  1  0.31233000  0.03721000  0.63333000  1
  H  H110  1  0.23738000  0.02755000  0.56762000  1
  H  H111  1  0.36733000  0.02266000  0.68033000  1
  H  H112  1  0.42962000  0.02447000  0.75942000  1
  H  H113  1  0.30262000  0.98546000  0.85971000  1
  H  H114  1  0.63515000  0.45568000  0.29915000  1
  H  H115  1  0.81233000  0.46279000  0.36667000  1
  H  H116  1  0.73738000  0.47245000  0.43238000  1
  H  H117  1  0.86733000  0.47734000  0.31967000  1
  H  H118  1  0.92962000  0.47553000  0.24058000  1
  H  H119  1  0.80262000  0.51454000  0.14029000  1
  H  H120  1  0.20085000  0.13515000  0.45568000  1
  H  H121  1  0.13333000  0.31233000  0.46279000  1
  H  H122  1  0.06762000  0.23738000  0.47245000  1
  H  H123  1  0.18033000  0.36733000  0.47734000  1
  H  H124  1  0.25942000  0.42962000  0.47553000  1
  H  H125  1  0.35971000  0.30262000  0.51454000  1
  H  H126  1  0.29915000  0.86485000  0.95568000  1
  H  H127  1  0.36667000  0.68767000  0.96279000  1
  H  H128  1  0.43238000  0.76262000  0.97245000  1
  H  H129  1  0.31967000  0.63267000  0.97734000  1
  H  H130  1  0.24058000  0.57038000  0.97553000  1
  H  H131  1  0.14029000  0.69738000  0.01454000  1
  H  H132  1  0.70085000  0.36485000  0.54432000  1
  H  H133  1  0.63333000  0.18767000  0.53721000  1
  H  H134  1  0.56762000  0.26262000  0.52755000  1
  H  H135  1  0.68033000  0.13267000  0.52266000  1
  H  H136  1  0.75942000  0.07038000  0.52447000  1
  H  H137  1  0.85971000  0.19738000  0.48546000  1
  H  H138  1  0.79915000  0.63515000  0.04432000  1
  H  H139  1  0.86667000  0.81233000  0.03721000  1
  H  H140  1  0.93238000  0.73738000  0.02755000  1
  H  H141  1  0.81967000  0.86733000  0.02266000  1
  H  H142  1  0.74058000  0.92962000  0.02447000  1
  H  H143  1  0.64029000  0.80262000  0.98546000  1
  H  H144  1  0.45568000  0.20085000  0.13515000  1
  H  H145  1  0.46279000  0.13333000  0.31233000  1
  H  H146  1  0.47245000  0.06762000  0.23738000  1
  H  H147  1  0.47734000  0.18033000  0.36733000  1
  H  H148  1  0.47553000  0.25942000  0.42962000  1
  H  H149  1  0.51454000  0.35971000  0.30262000  1
  H  H150  1  0.04432000  0.79915000  0.63515000  1
  H  H151  1  0.03721000  0.86667000  0.81233000  1
  H  H152  1  0.02755000  0.93238000  0.73738000  1
  H  H153  1  0.02266000  0.81967000  0.86733000  1
  H  H154  1  0.02447000  0.74058000  0.92962000  1
  H  H155  1  0.98546000  0.64029000  0.80262000  1
  H  H156  1  0.95568000  0.29915000  0.86485000  1
  H  H157  1  0.96279000  0.36667000  0.68767000  1
  H  H158  1  0.97245000  0.43238000  0.76262000  1
  H  H159  1  0.97734000  0.31967000  0.63267000  1
  H  H160  1  0.97553000  0.24058000  0.57038000  1
  H  H161  1  0.01454000  0.14029000  0.69738000  1
  H  H162  1  0.54432000  0.70085000  0.36485000  1
  H  H163  1  0.53721000  0.63333000  0.18767000  1
  H  H164  1  0.52755000  0.56762000  0.26262000  1
  H  H165  1  0.52266000  0.68033000  0.13267000  1
  H  H166  1  0.52447000  0.75942000  0.07038000  1
  H  H167  1  0.48546000  0.85971000  0.19738000  1
  H  H168  1  0.13515000  0.45568000  0.20085000  1
  H  H169  1  0.31233000  0.46279000  0.13333000  1
  H  H170  1  0.23738000  0.47245000  0.06762000  1
  H  H171  1  0.36733000  0.47734000  0.18033000  1
  H  H172  1  0.42962000  0.47553000  0.25942000  1
  H  H173  1  0.30262000  0.51454000  0.35971000  1
  H  H174  1  0.63515000  0.04432000  0.79915000  1
  H  H175  1  0.81233000  0.03721000  0.86667000  1
  H  H176  1  0.73738000  0.02755000  0.93238000  1
  H  H177  1  0.86733000  0.02266000  0.81967000  1
  H  H178  1  0.92962000  0.02447000  0.74058000  1
  H  H179  1  0.80262000  0.98546000  0.64029000  1
  H  H180  1  0.86485000  0.95568000  0.29915000  1
  H  H181  1  0.68767000  0.96279000  0.36667000  1
  H  H182  1  0.76262000  0.97245000  0.43238000  1
  H  H183  1  0.63267000  0.97734000  0.31967000  1
  H  H184  1  0.57038000  0.97553000  0.24058000  1
  H  H185  1  0.69738000  0.01454000  0.14029000  1
  H  H186  1  0.36485000  0.54432000  0.70085000  1
  H  H187  1  0.18767000  0.53721000  0.63333000  1
  H  H188  1  0.26262000  0.52755000  0.56762000  1
  H  H189  1  0.13267000  0.52266000  0.68033000  1
  H  H190  1  0.07038000  0.52447000  0.75942000  1
  H  H191  1  0.19738000  0.48546000  0.85971000  1
  C  C192  1  0.31890000  0.53840000  0.63100000  1
  C  C193  1  0.13240000  0.51810000  0.81740000  1
  C  C194  1  0.36458000  0.53490000  0.59616000  1
  C  C195  1  0.09790000  0.50740000  0.86103000  1
  C  C196  1  0.32600000  0.53440000  0.68320000  1
  C  C197  1  0.29050000  0.47480000  0.85580000  1
  C  C198  1  0.36260000  0.48880000  0.79610000  1
  C  C199  1  0.28590000  0.43330000  0.77300000  1
  C  C200  1  0.30420000  0.57410000  0.80620000  1
  C  C201  1  0.23920000  0.52600000  0.69510000  1
  C  C202  1  0.22910000  0.53200000  0.64660000  1
  C  C203  1  0.26850000  0.53210000  0.61080000  1
  C  C204  1  0.19830000  0.51980000  0.73490000  1
  C  C205  1  0.14520000  0.52150000  0.72230000  1
  C  C206  1  0.11350000  0.52150000  0.76660000  1
  C  C207  1  0.18320000  0.50310000  0.82220000  1
  C  C208  1  0.18110000  0.46160000  0.13100000  1
  C  C209  1  0.36760000  0.48190000  0.31740000  1
  C  C210  1  0.13542000  0.46510000  0.09616000  1
  C  C211  1  0.40210000  0.49260000  0.36103000  1
  C  C212  1  0.17400000  0.46560000  0.18320000  1
  C  C213  1  0.20950000  0.52520000  0.35580000  1
  C  C214  1  0.13740000  0.51120000  0.29610000  1
  C  C215  1  0.21410000  0.56670000  0.27300000  1
  C  C216  1  0.19580000  0.42590000  0.30620000  1
  C  C217  1  0.26080000  0.47400000  0.19510000  1
  C  C218  1  0.27090000  0.46800000  0.14660000  1
  C  C219  1  0.23150000  0.46790000  0.11080000  1
  C  C220  1  0.30170000  0.48020000  0.23490000  1
  C  C221  1  0.35480000  0.47850000  0.22230000  1
  C  C222  1  0.38650000  0.47850000  0.26660000  1
  C  C223  1  0.31680000  0.49690000  0.32220000  1
  C  C224  1  0.81890000  0.96160000  0.36900000  1
  C  C225  1  0.63240000  0.98190000  0.18260000  1
  C  C226  1  0.86458000  0.96510000  0.40384000  1
  C  C227  1  0.59790000  0.99260000  0.13897000  1
  C  C228  1  0.82600000  0.96560000  0.31680000  1
  C  C229  1  0.79050000  0.02520000  0.14420000  1
  C  C230  1  0.86260000  0.01120000  0.20390000  1
  C  C231  1  0.78590000  0.06670000  0.22700000  1
  C  C232  1  0.80420000  0.92590000  0.19380000  1
  C  C233  1  0.73920000  0.97400000  0.30490000  1
  C  C234  1  0.72910000  0.96800000  0.35340000  1
  C  C235  1  0.76850000  0.96790000  0.38920000  1
  C  C236  1  0.69830000  0.98020000  0.26510000  1
  C  C237  1  0.64520000  0.97850000  0.27770000  1
  C  C238  1  0.61350000  0.97850000  0.23340000  1
  C  C239  1  0.68320000  0.99690000  0.17780000  1
  C  C240  1  0.68110000  0.03840000  0.86900000  1
  C  C241  1  0.86760000  0.01810000  0.68260000  1
  C  C242  1  0.63542000  0.03490000  0.90384000  1
  C  C243  1  0.90210000  0.00740000  0.63897000  1
  C  C244  1  0.67400000  0.03440000  0.81680000  1
  C  C245  1  0.70950000  0.97480000  0.64420000  1
  C  C246  1  0.63740000  0.98880000  0.70390000  1
  C  C247  1  0.71410000  0.93330000  0.72700000  1
  C  C248  1  0.69580000  0.07410000  0.69380000  1
  C  C249  1  0.76080000  0.02600000  0.80490000  1
  C  C250  1  0.77090000  0.03200000  0.85340000  1
  C  C251  1  0.73150000  0.03210000  0.88920000  1
  C  C252  1  0.80170000  0.01980000  0.76510000  1
  C  C253  1  0.85480000  0.02150000  0.77770000  1
  C  C254  1  0.88650000  0.02150000  0.73340000  1
  C  C255  1  0.81680000  0.00310000  0.67780000  1
  C  C256  1  0.63100000  0.31890000  0.53840000  1
  C  C257  1  0.81740000  0.13240000  0.51810000  1
  C  C258  1  0.59616000  0.36458000  0.53490000  1
  C  C259  1  0.86103000  0.09790000  0.50740000  1
  C  C260  1  0.68320000  0.32600000  0.53440000  1
  C  C261  1  0.85580000  0.29050000  0.47480000  1
  C  C262  1  0.79610000  0.36260000  0.48880000  1
  C  C263  1  0.77300000  0.28590000  0.43330000  1
  C  C264  1  0.80620000  0.30420000  0.57410000  1
  C  C265  1  0.69510000  0.23920000  0.52600000  1
  C  C266  1  0.64660000  0.22910000  0.53200000  1
  C  C267  1  0.61080000  0.26850000  0.53210000  1
  C  C268  1  0.73490000  0.19830000  0.51980000  1
  C  C269  1  0.72230000  0.14520000  0.52150000  1
  C  C270  1  0.76660000  0.11350000  0.52150000  1
  C  C271  1  0.82220000  0.18320000  0.50310000  1
  C  C272  1  0.86900000  0.68110000  0.03840000  1
  C  C273  1  0.68260000  0.86760000  0.01810000  1
  C  C274  1  0.90384000  0.63542000  0.03490000  1
  C  C275  1  0.63897000  0.90210000  0.00740000  1
  C  C276  1  0.81680000  0.67400000  0.03440000  1
  C  C277  1  0.64420000  0.70950000  0.97480000  1
  C  C278  1  0.70390000  0.63740000  0.98880000  1
  C  C279  1  0.72700000  0.71410000  0.93330000  1
  C  C280  1  0.69380000  0.69580000  0.07410000  1
  C  C281  1  0.80490000  0.76080000  0.02600000  1
  C  C282  1  0.85340000  0.77090000  0.03200000  1
  C  C283  1  0.88920000  0.73150000  0.03210000  1
  C  C284  1  0.76510000  0.80170000  0.01980000  1
  C  C285  1  0.77770000  0.85480000  0.02150000  1
  C  C286  1  0.73340000  0.88650000  0.02150000  1
  C  C287  1  0.67780000  0.81680000  0.00310000  1
  C  C288  1  0.13100000  0.18110000  0.46160000  1
  C  C289  1  0.31740000  0.36760000  0.48190000  1
  C  C290  1  0.09616000  0.13542000  0.46510000  1
  C  C291  1  0.36103000  0.40210000  0.49260000  1
  C  C292  1  0.18320000  0.17400000  0.46560000  1
  C  C293  1  0.35580000  0.20950000  0.52520000  1
  C  C294  1  0.29610000  0.13740000  0.51120000  1
  C  C295  1  0.27300000  0.21410000  0.56670000  1
  C  C296  1  0.30620000  0.19580000  0.42590000  1
  C  C297  1  0.19510000  0.26080000  0.47400000  1
  C  C298  1  0.14660000  0.27090000  0.46800000  1
  C  C299  1  0.11080000  0.23150000  0.46790000  1
  C  C300  1  0.23490000  0.30170000  0.48020000  1
  C  C301  1  0.22230000  0.35480000  0.47850000  1
  C  C302  1  0.26660000  0.38650000  0.47850000  1
  C  C303  1  0.32220000  0.31680000  0.49690000  1
  C  C304  1  0.36900000  0.81890000  0.96160000  1
  C  C305  1  0.18260000  0.63240000  0.98190000  1
  C  C306  1  0.40384000  0.86458000  0.96510000  1
  C  C307  1  0.13897000  0.59790000  0.99260000  1
  C  C308  1  0.31680000  0.82600000  0.96560000  1
  C  C309  1  0.14420000  0.79050000  0.02520000  1
  C  C310  1  0.20390000  0.86260000  0.01120000  1
  C  C311  1  0.22700000  0.78590000  0.06670000  1
  C  C312  1  0.19380000  0.80420000  0.92590000  1
  C  C313  1  0.30490000  0.73920000  0.97400000  1
  C  C314  1  0.35340000  0.72910000  0.96800000  1
  C  C315  1  0.38920000  0.76850000  0.96790000  1
  C  C316  1  0.26510000  0.69830000  0.98020000  1
  C  C317  1  0.27770000  0.64520000  0.97850000  1
  C  C318  1  0.23340000  0.61350000  0.97850000  1
  C  C319  1  0.17780000  0.68320000  0.99690000  1
  C  C320  1  0.53840000  0.63100000  0.31890000  1
  C  C321  1  0.51810000  0.81740000  0.13240000  1
  C  C322  1  0.53490000  0.59616000  0.36458000  1
  C  C323  1  0.50740000  0.86103000  0.09790000  1
  C  C324  1  0.53440000  0.68320000  0.32600000  1
  C  C325  1  0.47480000  0.85580000  0.29050000  1
  C  C326  1  0.48880000  0.79610000  0.36260000  1
  C  C327  1  0.43330000  0.77300000  0.28590000  1
  C  C328  1  0.57410000  0.80620000  0.30420000  1
  C  C329  1  0.52600000  0.69510000  0.23920000  1
  C  C330  1  0.53200000  0.64660000  0.22910000  1
  C  C331  1  0.53210000  0.61080000  0.26850000  1
  C  C332  1  0.51980000  0.73490000  0.19830000  1
  C  C333  1  0.52150000  0.72230000  0.14520000  1
  C  C334  1  0.52150000  0.76660000  0.11350000  1
  C  C335  1  0.50310000  0.82220000  0.18320000  1
  C  C336  1  0.03840000  0.86900000  0.68110000  1
  C  C337  1  0.01810000  0.68260000  0.86760000  1
  C  C338  1  0.03490000  0.90384000  0.63542000  1
  C  C339  1  0.00740000  0.63897000  0.90210000  1
  C  C340  1  0.03440000  0.81680000  0.67400000  1
  C  C341  1  0.97480000  0.64420000  0.70950000  1
  C  C342  1  0.98880000  0.70390000  0.63740000  1
  C  C343  1  0.93330000  0.72700000  0.71410000  1
  C  C344  1  0.07410000  0.69380000  0.69580000  1
  C  C345  1  0.02600000  0.80490000  0.76080000  1
  C  C346  1  0.03200000  0.85340000  0.77090000  1
  C  C347  1  0.03210000  0.88920000  0.73150000  1
  C  C348  1  0.01980000  0.76510000  0.80170000  1
  C  C349  1  0.02150000  0.77770000  0.85480000  1
  C  C350  1  0.02150000  0.73340000  0.88650000  1
  C  C351  1  0.00310000  0.67780000  0.81680000  1
  C  C352  1  0.46160000  0.13100000  0.18110000  1
  C  C353  1  0.48190000  0.31740000  0.36760000  1
  C  C354  1  0.46510000  0.09616000  0.13542000  1
  C  C355  1  0.49260000  0.36103000  0.40210000  1
  C  C356  1  0.46560000  0.18320000  0.17400000  1
  C  C357  1  0.52520000  0.35580000  0.20950000  1
  C  C358  1  0.51120000  0.29610000  0.13740000  1
  C  C359  1  0.56670000  0.27300000  0.21410000  1
  C  C360  1  0.42590000  0.30620000  0.19580000  1
  C  C361  1  0.47400000  0.19510000  0.26080000  1
  C  C362  1  0.46800000  0.14660000  0.27090000  1
  C  C363  1  0.46790000  0.11080000  0.23150000  1
  C  C364  1  0.48020000  0.23490000  0.30170000  1
  C  C365  1  0.47850000  0.22230000  0.35480000  1
  C  C366  1  0.47850000  0.26660000  0.38650000  1
  C  C367  1  0.49690000  0.32220000  0.31680000  1
  C  C368  1  0.96160000  0.36900000  0.81890000  1
  C  C369  1  0.98190000  0.18260000  0.63240000  1
  C  C370  1  0.96510000  0.40384000  0.86458000  1
  C  C371  1  0.99260000  0.13897000  0.59790000  1
  C  C372  1  0.96560000  0.31680000  0.82600000  1
  C  C373  1  0.02520000  0.14420000  0.79050000  1
  C  C374  1  0.01120000  0.20390000  0.86260000  1
  C  C375  1  0.06670000  0.22700000  0.78590000  1
  C  C376  1  0.92590000  0.19380000  0.80420000  1
  C  C377  1  0.97400000  0.30490000  0.73920000  1
  C  C378  1  0.96800000  0.35340000  0.72910000  1
  C  C379  1  0.96790000  0.38920000  0.76850000  1
  C  C380  1  0.98020000  0.26510000  0.69830000  1
  C  C381  1  0.97850000  0.27770000  0.64520000  1
  C  C382  1  0.97850000  0.23340000  0.61350000  1
  C  C383  1  0.99690000  0.17780000  0.68320000  1
  C  C384  1  0.68110000  0.46160000  0.36900000  1
  C  C385  1  0.86760000  0.48190000  0.18260000  1
  C  C386  1  0.63542000  0.46510000  0.40384000  1
  C  C387  1  0.90210000  0.49260000  0.13897000  1
  C  C388  1  0.67400000  0.46560000  0.31680000  1
  C  C389  1  0.70950000  0.52520000  0.14420000  1
  C  C390  1  0.63740000  0.51120000  0.20390000  1
  C  C391  1  0.71410000  0.56670000  0.22700000  1
  C  C392  1  0.69580000  0.42590000  0.19380000  1
  C  C393  1  0.76080000  0.47400000  0.30490000  1
  C  C394  1  0.77090000  0.46800000  0.35340000  1
  C  C395  1  0.73150000  0.46790000  0.38920000  1
  C  C396  1  0.80170000  0.48020000  0.26510000  1
  C  C397  1  0.85480000  0.47850000  0.27770000  1
  C  C398  1  0.88650000  0.47850000  0.23340000  1
  C  C399  1  0.81680000  0.49690000  0.17780000  1
  C  C400  1  0.81890000  0.53840000  0.86900000  1
  C  C401  1  0.63240000  0.51810000  0.68260000  1
  C  C402  1  0.86458000  0.53490000  0.90384000  1
  C  C403  1  0.59790000  0.50740000  0.63897000  1
  C  C404  1  0.82600000  0.53440000  0.81680000  1
  C  C405  1  0.79050000  0.47480000  0.64420000  1
  C  C406  1  0.86260000  0.48880000  0.70390000  1
  C  C407  1  0.78590000  0.43330000  0.72700000  1
  C  C408  1  0.80420000  0.57410000  0.69380000  1
  C  C409  1  0.73920000  0.52600000  0.80490000  1
  C  C410  1  0.72910000  0.53200000  0.85340000  1
  C  C411  1  0.76850000  0.53210000  0.88920000  1
  C  C412  1  0.69830000  0.51980000  0.76510000  1
  C  C413  1  0.64520000  0.52150000  0.77770000  1
  C  C414  1  0.61350000  0.52150000  0.73340000  1
  C  C415  1  0.68320000  0.50310000  0.67780000  1
  C  C416  1  0.18110000  0.03840000  0.63100000  1
  C  C417  1  0.36760000  0.01810000  0.81740000  1
  C  C418  1  0.13542000  0.03490000  0.59616000  1
  C  C419  1  0.40210000  0.00740000  0.86103000  1
  C  C420  1  0.17400000  0.03440000  0.68320000  1
  C  C421  1  0.20950000  0.97480000  0.85580000  1
  C  C422  1  0.13740000  0.98880000  0.79610000  1
  C  C423  1  0.21410000  0.93330000  0.77300000  1
  C  C424  1  0.19580000  0.07410000  0.80620000  1
  C  C425  1  0.26080000  0.02600000  0.69510000  1
  C  C426  1  0.27090000  0.03200000  0.64660000  1
  C  C427  1  0.23150000  0.03210000  0.61080000  1
  C  C428  1  0.30170000  0.01980000  0.73490000  1
  C  C429  1  0.35480000  0.02150000  0.72230000  1
  C  C430  1  0.38650000  0.02150000  0.76660000  1
  C  C431  1  0.31680000  0.00310000  0.82220000  1
  C  C432  1  0.31890000  0.96160000  0.13100000  1
  C  C433  1  0.13240000  0.98190000  0.31740000  1
  C  C434  1  0.36458000  0.96510000  0.09616000  1
  C  C435  1  0.09790000  0.99260000  0.36103000  1
  C  C436  1  0.32600000  0.96560000  0.18320000  1
  C  C437  1  0.29050000  0.02520000  0.35580000  1
  C  C438  1  0.36260000  0.01120000  0.29610000  1
  C  C439  1  0.28590000  0.06670000  0.27300000  1
  C  C440  1  0.30420000  0.92590000  0.30620000  1
  C  C441  1  0.23920000  0.97400000  0.19510000  1
  C  C442  1  0.22910000  0.96800000  0.14660000  1
  C  C443  1  0.26850000  0.96790000  0.11080000  1
  C  C444  1  0.19830000  0.98020000  0.23490000  1
  C  C445  1  0.14520000  0.97850000  0.22230000  1
  C  C446  1  0.11350000  0.97850000  0.26660000  1
  C  C447  1  0.18320000  0.99690000  0.32220000  1
  C  C448  1  0.36900000  0.68110000  0.46160000  1
  C  C449  1  0.18260000  0.86760000  0.48190000  1
  C  C450  1  0.40384000  0.63542000  0.46510000  1
  C  C451  1  0.13897000  0.90210000  0.49260000  1
  C  C452  1  0.31680000  0.67400000  0.46560000  1
  C  C453  1  0.14420000  0.70950000  0.52520000  1
  C  C454  1  0.20390000  0.63740000  0.51120000  1
  C  C455  1  0.22700000  0.71410000  0.56670000  1
  C  C456  1  0.19380000  0.69580000  0.42590000  1
  C  C457  1  0.30490000  0.76080000  0.47400000  1
  C  C458  1  0.35340000  0.77090000  0.46800000  1
  C  C459  1  0.38920000  0.73150000  0.46790000  1
  C  C460  1  0.26510000  0.80170000  0.48020000  1
  C  C461  1  0.27770000  0.85480000  0.47850000  1
  C  C462  1  0.23340000  0.88650000  0.47850000  1
  C  C463  1  0.17780000  0.81680000  0.49690000  1
  C  C464  1  0.13100000  0.31890000  0.96160000  1
  C  C465  1  0.31740000  0.13240000  0.98190000  1
  C  C466  1  0.09616000  0.36458000  0.96510000  1
  C  C467  1  0.36103000  0.09790000  0.99260000  1
  C  C468  1  0.18320000  0.32600000  0.96560000  1
  C  C469  1  0.35580000  0.29050000  0.02520000  1
  C  C470  1  0.29610000  0.36260000  0.01120000  1
  C  C471  1  0.27300000  0.28590000  0.06670000  1
  C  C472  1  0.30620000  0.30420000  0.92590000  1
  C  C473  1  0.19510000  0.23920000  0.97400000  1
  C  C474  1  0.14660000  0.22910000  0.96800000  1
  C  C475  1  0.11080000  0.26850000  0.96790000  1
  C  C476  1  0.23490000  0.19830000  0.98020000  1
  C  C477  1  0.22230000  0.14520000  0.97850000  1
  C  C478  1  0.26660000  0.11350000  0.97850000  1
  C  C479  1  0.32220000  0.18320000  0.99690000  1
  C  C480  1  0.86900000  0.81890000  0.53840000  1
  C  C481  1  0.68260000  0.63240000  0.51810000  1
  C  C482  1  0.90384000  0.86458000  0.53490000  1
  C  C483  1  0.63897000  0.59790000  0.50740000  1
  C  C484  1  0.81680000  0.82600000  0.53440000  1
  C  C485  1  0.64420000  0.79050000  0.47480000  1
  C  C486  1  0.70390000  0.86260000  0.48880000  1
  C  C487  1  0.72700000  0.78590000  0.43330000  1
  C  C488  1  0.69380000  0.80420000  0.57410000  1
  C  C489  1  0.80490000  0.73920000  0.52600000  1
  C  C490  1  0.85340000  0.72910000  0.53200000  1
  C  C491  1  0.88920000  0.76850000  0.53210000  1
  C  C492  1  0.76510000  0.69830000  0.51980000  1
  C  C493  1  0.77770000  0.64520000  0.52150000  1
  C  C494  1  0.73340000  0.61350000  0.52150000  1
  C  C495  1  0.67780000  0.68320000  0.50310000  1
  C  C496  1  0.63100000  0.18110000  0.03840000  1
  C  C497  1  0.81740000  0.36760000  0.01810000  1
  C  C498  1  0.59616000  0.13542000  0.03490000  1
  C  C499  1  0.86103000  0.40210000  0.00740000  1
  C  C500  1  0.68320000  0.17400000  0.03440000  1
  C  C501  1  0.85580000  0.20950000  0.97480000  1
  C  C502  1  0.79610000  0.13740000  0.98880000  1
  C  C503  1  0.77300000  0.21410000  0.93330000  1
  C  C504  1  0.80620000  0.19580000  0.07410000  1
  C  C505  1  0.69510000  0.26080000  0.02600000  1
  C  C506  1  0.64660000  0.27090000  0.03200000  1
  C  C507  1  0.61080000  0.23150000  0.03210000  1
  C  C508  1  0.73490000  0.30170000  0.01980000  1
  C  C509  1  0.72230000  0.35480000  0.02150000  1
  C  C510  1  0.76660000  0.38650000  0.02150000  1
  C  C511  1  0.82220000  0.31680000  0.00310000  1
  C  C512  1  0.46160000  0.36900000  0.68110000  1
  C  C513  1  0.48190000  0.18260000  0.86760000  1
  C  C514  1  0.46510000  0.40384000  0.63542000  1
  C  C515  1  0.49260000  0.13897000  0.90210000  1
  C  C516  1  0.46560000  0.31680000  0.67400000  1
  C  C517  1  0.52520000  0.14420000  0.70950000  1
  C  C518  1  0.51120000  0.20390000  0.63740000  1
  C  C519  1  0.56670000  0.22700000  0.71410000  1
  C  C520  1  0.42590000  0.19380000  0.69580000  1
  C  C521  1  0.47400000  0.30490000  0.76080000  1
  C  C522  1  0.46800000  0.35340000  0.77090000  1
  C  C523  1  0.46790000  0.38920000  0.73150000  1
  C  C524  1  0.48020000  0.26510000  0.80170000  1
  C  C525  1  0.47850000  0.27770000  0.85480000  1
  C  C526  1  0.47850000  0.23340000  0.88650000  1
  C  C527  1  0.49690000  0.17780000  0.81680000  1
  C  C528  1  0.96160000  0.13100000  0.31890000  1
  C  C529  1  0.98190000  0.31740000  0.13240000  1
  C  C530  1  0.96510000  0.09616000  0.36458000  1
  C  C531  1  0.99260000  0.36103000  0.09790000  1
  C  C532  1  0.96560000  0.18320000  0.32600000  1
  C  C533  1  0.02520000  0.35580000  0.29050000  1
  C  C534  1  0.01120000  0.29610000  0.36260000  1
  C  C535  1  0.06670000  0.27300000  0.28590000  1
  C  C536  1  0.92590000  0.30620000  0.30420000  1
  C  C537  1  0.97400000  0.19510000  0.23920000  1
  C  C538  1  0.96800000  0.14660000  0.22910000  1
  C  C539  1  0.96790000  0.11080000  0.26850000  1
  C  C540  1  0.98020000  0.23490000  0.19830000  1
  C  C541  1  0.97850000  0.22230000  0.14520000  1
  C  C542  1  0.97850000  0.26660000  0.11350000  1
  C  C543  1  0.99690000  0.32220000  0.18320000  1
  C  C544  1  0.53840000  0.86900000  0.81890000  1
  C  C545  1  0.51810000  0.68260000  0.63240000  1
  C  C546  1  0.53490000  0.90384000  0.86458000  1
  C  C547  1  0.50740000  0.63897000  0.59790000  1
  C  C548  1  0.53440000  0.81680000  0.82600000  1
  C  C549  1  0.47480000  0.64420000  0.79050000  1
  C  C550  1  0.48880000  0.70390000  0.86260000  1
  C  C551  1  0.43330000  0.72700000  0.78590000  1
  C  C552  1  0.57410000  0.69380000  0.80420000  1
  C  C553  1  0.52600000  0.80490000  0.73920000  1
  C  C554  1  0.53200000  0.85340000  0.72910000  1
  C  C555  1  0.53210000  0.88920000  0.76850000  1
  C  C556  1  0.51980000  0.76510000  0.69830000  1
  C  C557  1  0.52150000  0.77770000  0.64520000  1
  C  C558  1  0.52150000  0.73340000  0.61350000  1
  C  C559  1  0.50310000  0.67780000  0.68320000  1
  C  C560  1  0.03840000  0.63100000  0.18110000  1
  C  C561  1  0.01810000  0.81740000  0.36760000  1
  C  C562  1  0.03490000  0.59616000  0.13542000  1
  C  C563  1  0.00740000  0.86103000  0.40210000  1
  C  C564  1  0.03440000  0.68320000  0.17400000  1
  C  C565  1  0.97480000  0.85580000  0.20950000  1
  C  C566  1  0.98880000  0.79610000  0.13740000  1
  C  C567  1  0.93330000  0.77300000  0.21410000  1
  C  C568  1  0.07410000  0.80620000  0.19580000  1
  C  C569  1  0.02600000  0.69510000  0.26080000  1
  C  C570  1  0.03200000  0.64660000  0.27090000  1
  C  C571  1  0.03210000  0.61080000  0.23150000  1
  C  C572  1  0.01980000  0.73490000  0.30170000  1
  C  C573  1  0.02150000  0.72230000  0.35480000  1
  C  C574  1  0.02150000  0.76660000  0.38650000  1
  C  C575  1  0.00310000  0.82220000  0.31680000  1
  N  N576  1  0.28730000  0.51870000  0.71460000  1
  N  N577  1  0.21630000  0.50900000  0.78320000  1
  N  N578  1  0.21270000  0.48130000  0.21460000  1
  N  N579  1  0.28370000  0.49100000  0.28320000  1
  N  N580  1  0.78730000  0.98130000  0.28540000  1
  N  N581  1  0.71630000  0.99100000  0.21680000  1
  N  N582  1  0.71270000  0.01870000  0.78540000  1
  N  N583  1  0.78370000  0.00900000  0.71680000  1
  N  N584  1  0.71460000  0.28730000  0.51870000  1
  N  N585  1  0.78320000  0.21630000  0.50900000  1
  N  N586  1  0.78540000  0.71270000  0.01870000  1
  N  N587  1  0.71680000  0.78370000  0.00900000  1
  N  N588  1  0.21460000  0.21270000  0.48130000  1
  N  N589  1  0.28320000  0.28370000  0.49100000  1
  N  N590  1  0.28540000  0.78730000  0.98130000  1
  N  N591  1  0.21680000  0.71630000  0.99100000  1
  N  N592  1  0.51870000  0.71460000  0.28730000  1
  N  N593  1  0.50900000  0.78320000  0.21630000  1
  N  N594  1  0.01870000  0.78540000  0.71270000  1
  N  N595  1  0.00900000  0.71680000  0.78370000  1
  N  N596  1  0.48130000  0.21460000  0.21270000  1
  N  N597  1  0.49100000  0.28320000  0.28370000  1
  N  N598  1  0.98130000  0.28540000  0.78730000  1
  N  N599  1  0.99100000  0.21680000  0.71630000  1
  N  N600  1  0.71270000  0.48130000  0.28540000  1
  N  N601  1  0.78370000  0.49100000  0.21680000  1
  N  N602  1  0.78730000  0.51870000  0.78540000  1
  N  N603  1  0.71630000  0.50900000  0.71680000  1
  N  N604  1  0.21270000  0.01870000  0.71460000  1
  N  N605  1  0.28370000  0.00900000  0.78320000  1
  N  N606  1  0.28730000  0.98130000  0.21460000  1
  N  N607  1  0.21630000  0.99100000  0.28320000  1
  N  N608  1  0.28540000  0.71270000  0.48130000  1
  N  N609  1  0.21680000  0.78370000  0.49100000  1
  N  N610  1  0.21460000  0.28730000  0.98130000  1
  N  N611  1  0.28320000  0.21630000  0.99100000  1
  N  N612  1  0.78540000  0.78730000  0.51870000  1
  N  N613  1  0.71680000  0.71630000  0.50900000  1
  N  N614  1  0.71460000  0.21270000  0.01870000  1
  N  N615  1  0.78320000  0.28370000  0.00900000  1
  N  N616  1  0.48130000  0.28540000  0.71270000  1
  N  N617  1  0.49100000  0.21680000  0.78370000  1
  N  N618  1  0.98130000  0.21460000  0.28730000  1
  N  N619  1  0.99100000  0.28320000  0.21630000  1
  N  N620  1  0.51870000  0.78540000  0.78730000  1
  N  N621  1  0.50900000  0.71680000  0.71630000  1
  N  N622  1  0.01870000  0.71460000  0.21270000  1
  N  N623  1  0.00900000  0.78320000  0.28370000  1
  O  O624  1  0.44910000  0.57040000  0.53450000  1
  O  O625  1  0.40791000  0.53491000  0.61858000  1
  O  O626  1  0.35563000  0.53386000  0.54861000  1
  O  O627  1  0.11969000  0.49382000  0.90246000  1
  O  O628  1  0.05095000  0.51418000  0.85363000  1
  O  O629  1  0.28590000  0.44790000  0.89550000  1
  O  O630  1  0.40920000  0.48330000  0.80380000  1
  O  O631  1  0.29700000  0.39100000  0.77410000  1
  O  O632  1  0.31140000  0.61710000  0.81080000  1
  O  O633  1  0.55230000  0.55230000  0.55230000  1
  O  O634  1  0.05090000  0.42960000  0.03450000  1
  O  O635  1  0.09209000  0.46509000  0.11858000  1
  O  O636  1  0.14437000  0.46614000  0.04861000  1
  O  O637  1  0.38031000  0.50618000  0.40246000  1
  O  O638  1  0.44905000  0.48582000  0.35363000  1
  O  O639  1  0.21410000  0.55210000  0.39550000  1
  O  O640  1  0.09080000  0.51670000  0.30380000  1
  O  O641  1  0.20300000  0.60900000  0.27410000  1
  O  O642  1  0.18860000  0.38290000  0.31080000  1
  O  O643  1  0.94770000  0.44770000  0.05230000  1
  O  O644  1  0.94910000  0.92960000  0.46550000  1
  O  O645  1  0.90791000  0.96509000  0.38142000  1
  O  O646  1  0.85563000  0.96614000  0.45139000  1
  O  O647  1  0.61969000  0.00618000  0.09754000  1
  O  O648  1  0.55095000  0.98582000  0.14637000  1
  O  O649  1  0.78590000  0.05210000  0.10450000  1
  O  O650  1  0.90920000  0.01670000  0.19620000  1
  O  O651  1  0.79700000  0.10900000  0.22590000  1
  O  O652  1  0.81140000  0.88290000  0.18920000  1
  O  O653  1  0.05230000  0.94770000  0.44770000  1
  O  O654  1  0.55090000  0.07040000  0.96550000  1
  O  O655  1  0.59209000  0.03491000  0.88142000  1
  O  O656  1  0.64437000  0.03386000  0.95139000  1
  O  O657  1  0.88031000  0.99382000  0.59754000  1
  O  O658  1  0.94905000  0.01418000  0.64637000  1
  O  O659  1  0.71410000  0.94790000  0.60450000  1
  O  O660  1  0.59080000  0.98330000  0.69620000  1
  O  O661  1  0.70300000  0.89100000  0.72590000  1
  O  O662  1  0.68860000  0.11710000  0.68920000  1
  O  O663  1  0.44770000  0.05230000  0.94770000  1
  O  O664  1  0.53450000  0.44910000  0.57040000  1
  O  O665  1  0.61858000  0.40791000  0.53491000  1
  O  O666  1  0.54861000  0.35563000  0.53386000  1
  O  O667  1  0.90246000  0.11969000  0.49382000  1
  O  O668  1  0.85363000  0.05095000  0.51418000  1
  O  O669  1  0.89550000  0.28590000  0.44790000  1
  O  O670  1  0.80380000  0.40920000  0.48330000  1
  O  O671  1  0.77410000  0.29700000  0.39100000  1
  O  O672  1  0.81080000  0.31140000  0.61710000  1
  O  O673  1  0.96550000  0.55090000  0.07040000  1
  O  O674  1  0.88142000  0.59209000  0.03491000  1
  O  O675  1  0.95139000  0.64437000  0.03386000  1
  O  O676  1  0.59754000  0.88031000  0.99382000  1
  O  O677  1  0.64637000  0.94905000  0.01418000  1
  O  O678  1  0.60450000  0.71410000  0.94790000  1
  O  O679  1  0.69620000  0.59080000  0.98330000  1
  O  O680  1  0.72590000  0.70300000  0.89100000  1
  O  O681  1  0.68920000  0.68860000  0.11710000  1
  O  O682  1  0.03450000  0.05090000  0.42960000  1
  O  O683  1  0.11858000  0.09209000  0.46509000  1
  O  O684  1  0.04861000  0.14437000  0.46614000  1
  O  O685  1  0.40246000  0.38031000  0.50618000  1
  O  O686  1  0.35363000  0.44905000  0.48582000  1
  O  O687  1  0.39550000  0.21410000  0.55210000  1
  O  O688  1  0.30380000  0.09080000  0.51670000  1
  O  O689  1  0.27410000  0.20300000  0.60900000  1
  O  O690  1  0.31080000  0.18860000  0.38290000  1
  O  O691  1  0.46550000  0.94910000  0.92960000  1
  O  O692  1  0.38142000  0.90791000  0.96509000  1
  O  O693  1  0.45139000  0.85563000  0.96614000  1
  O  O694  1  0.09754000  0.61969000  0.00618000  1
  O  O695  1  0.14637000  0.55095000  0.98582000  1
  O  O696  1  0.10450000  0.78590000  0.05210000  1
  O  O697  1  0.19620000  0.90920000  0.01670000  1
  O  O698  1  0.22590000  0.79700000  0.10900000  1
  O  O699  1  0.18920000  0.81140000  0.88290000  1
  O  O700  1  0.57040000  0.53450000  0.44910000  1
  O  O701  1  0.53491000  0.61858000  0.40791000  1
  O  O702  1  0.53386000  0.54861000  0.35563000  1
  O  O703  1  0.49382000  0.90246000  0.11969000  1
  O  O704  1  0.51418000  0.85363000  0.05095000  1
  O  O705  1  0.44790000  0.89550000  0.28590000  1
  O  O706  1  0.48330000  0.80380000  0.40920000  1
  O  O707  1  0.39100000  0.77410000  0.29700000  1
  O  O708  1  0.61710000  0.81080000  0.31140000  1
  O  O709  1  0.07040000  0.96550000  0.55090000  1
  O  O710  1  0.03491000  0.88142000  0.59209000  1
  O  O711  1  0.03386000  0.95139000  0.64437000  1
  O  O712  1  0.99382000  0.59754000  0.88031000  1
  O  O713  1  0.01418000  0.64637000  0.94905000  1
  O  O714  1  0.94790000  0.60450000  0.71410000  1
  O  O715  1  0.98330000  0.69620000  0.59080000  1
  O  O716  1  0.89100000  0.72590000  0.70300000  1
  O  O717  1  0.11710000  0.68920000  0.68860000  1
  O  O718  1  0.42960000  0.03450000  0.05090000  1
  O  O719  1  0.46509000  0.11858000  0.09209000  1
  O  O720  1  0.46614000  0.04861000  0.14437000  1
  O  O721  1  0.50618000  0.40246000  0.38031000  1
  O  O722  1  0.48582000  0.35363000  0.44905000  1
  O  O723  1  0.55210000  0.39550000  0.21410000  1
  O  O724  1  0.51670000  0.30380000  0.09080000  1
  O  O725  1  0.60900000  0.27410000  0.20300000  1
  O  O726  1  0.38290000  0.31080000  0.18860000  1
  O  O727  1  0.92960000  0.46550000  0.94910000  1
  O  O728  1  0.96509000  0.38142000  0.90791000  1
  O  O729  1  0.96614000  0.45139000  0.85563000  1
  O  O730  1  0.00618000  0.09754000  0.61969000  1
  O  O731  1  0.98582000  0.14637000  0.55095000  1
  O  O732  1  0.05210000  0.10450000  0.78590000  1
  O  O733  1  0.01670000  0.19620000  0.90920000  1
  O  O734  1  0.10900000  0.22590000  0.79700000  1
  O  O735  1  0.88290000  0.18920000  0.81140000  1
  O  O736  1  0.55090000  0.42960000  0.46550000  1
  O  O737  1  0.59209000  0.46509000  0.38142000  1
  O  O738  1  0.64437000  0.46614000  0.45139000  1
  O  O739  1  0.88031000  0.50618000  0.09754000  1
  O  O740  1  0.94905000  0.48582000  0.14637000  1
  O  O741  1  0.71410000  0.55210000  0.10450000  1
  O  O742  1  0.59080000  0.51670000  0.19620000  1
  O  O743  1  0.70300000  0.60900000  0.22590000  1
  O  O744  1  0.68860000  0.38290000  0.18920000  1
  O  O745  1  0.44770000  0.44770000  0.44770000  1
  O  O746  1  0.94910000  0.57040000  0.96550000  1
  O  O747  1  0.90791000  0.53491000  0.88142000  1
  O  O748  1  0.85563000  0.53386000  0.95139000  1
  O  O749  1  0.61969000  0.49382000  0.59754000  1
  O  O750  1  0.55095000  0.51418000  0.64637000  1
  O  O751  1  0.78590000  0.44790000  0.60450000  1
  O  O752  1  0.90920000  0.48330000  0.69620000  1
  O  O753  1  0.79700000  0.39100000  0.72590000  1
  O  O754  1  0.81140000  0.61710000  0.68920000  1
  O  O755  1  0.05230000  0.55230000  0.94770000  1
  O  O756  1  0.05090000  0.07040000  0.53450000  1
  O  O757  1  0.09209000  0.03491000  0.61858000  1
  O  O758  1  0.14437000  0.03386000  0.54861000  1
  O  O759  1  0.38031000  0.99382000  0.90246000  1
  O  O760  1  0.44905000  0.01418000  0.85363000  1
  O  O761  1  0.21410000  0.94790000  0.89550000  1
  O  O762  1  0.09080000  0.98330000  0.80380000  1
  O  O763  1  0.20300000  0.89100000  0.77410000  1
  O  O764  1  0.18860000  0.11710000  0.81080000  1
  O  O765  1  0.94770000  0.05230000  0.55230000  1
  O  O766  1  0.44910000  0.92960000  0.03450000  1
  O  O767  1  0.40791000  0.96509000  0.11858000  1
  O  O768  1  0.35563000  0.96614000  0.04861000  1
  O  O769  1  0.11969000  0.00618000  0.40246000  1
  O  O770  1  0.05095000  0.98582000  0.35363000  1
  O  O771  1  0.28590000  0.05210000  0.39550000  1
  O  O772  1  0.40920000  0.01670000  0.30380000  1
  O  O773  1  0.29700000  0.10900000  0.27410000  1
  O  O774  1  0.31140000  0.88290000  0.31080000  1
  O  O775  1  0.55230000  0.94770000  0.05230000  1
  O  O776  1  0.46550000  0.55090000  0.42960000  1
  O  O777  1  0.38142000  0.59209000  0.46509000  1
  O  O778  1  0.45139000  0.64437000  0.46614000  1
  O  O779  1  0.09754000  0.88031000  0.50618000  1
  O  O780  1  0.14637000  0.94905000  0.48582000  1
  O  O781  1  0.10450000  0.71410000  0.55210000  1
  O  O782  1  0.19620000  0.59080000  0.51670000  1
  O  O783  1  0.22590000  0.70300000  0.60900000  1
  O  O784  1  0.18920000  0.68860000  0.38290000  1
  O  O785  1  0.03450000  0.44910000  0.92960000  1
  O  O786  1  0.11858000  0.40791000  0.96509000  1
  O  O787  1  0.04861000  0.35563000  0.96614000  1
  O  O788  1  0.40246000  0.11969000  0.00618000  1
  O  O789  1  0.35363000  0.05095000  0.98582000  1
  O  O790  1  0.39550000  0.28590000  0.05210000  1
  O  O791  1  0.30380000  0.40920000  0.01670000  1
  O  O792  1  0.27410000  0.29700000  0.10900000  1
  O  O793  1  0.31080000  0.31140000  0.88290000  1
  O  O794  1  0.96550000  0.94910000  0.57040000  1
  O  O795  1  0.88142000  0.90791000  0.53491000  1
  O  O796  1  0.95139000  0.85563000  0.53386000  1
  O  O797  1  0.59754000  0.61969000  0.49382000  1
  O  O798  1  0.64637000  0.55095000  0.51418000  1
  O  O799  1  0.60450000  0.78590000  0.44790000  1
  O  O800  1  0.69620000  0.90920000  0.48330000  1
  O  O801  1  0.72590000  0.79700000  0.39100000  1
  O  O802  1  0.68920000  0.81140000  0.61710000  1
  O  O803  1  0.53450000  0.05090000  0.07040000  1
  O  O804  1  0.61858000  0.09209000  0.03491000  1
  O  O805  1  0.54861000  0.14437000  0.03386000  1
  O  O806  1  0.90246000  0.38031000  0.99382000  1
  O  O807  1  0.85363000  0.44905000  0.01418000  1
  O  O808  1  0.89550000  0.21410000  0.94790000  1
  O  O809  1  0.80380000  0.09080000  0.98330000  1
  O  O810  1  0.77410000  0.20300000  0.89100000  1
  O  O811  1  0.81080000  0.18860000  0.11710000  1
  O  O812  1  0.42960000  0.46550000  0.55090000  1
  O  O813  1  0.46509000  0.38142000  0.59209000  1
  O  O814  1  0.46614000  0.45139000  0.64437000  1
  O  O815  1  0.50618000  0.09754000  0.88031000  1
  O  O816  1  0.48582000  0.14637000  0.94905000  1
  O  O817  1  0.55210000  0.10450000  0.71410000  1
  O  O818  1  0.51670000  0.19620000  0.59080000  1
  O  O819  1  0.60900000  0.22590000  0.70300000  1
  O  O820  1  0.38290000  0.18920000  0.68860000  1
  O  O821  1  0.92960000  0.03450000  0.44910000  1
  O  O822  1  0.96509000  0.11858000  0.40791000  1
  O  O823  1  0.96614000  0.04861000  0.35563000  1
  O  O824  1  0.00618000  0.40246000  0.11969000  1
  O  O825  1  0.98582000  0.35363000  0.05095000  1
  O  O826  1  0.05210000  0.39550000  0.28590000  1
  O  O827  1  0.01670000  0.30380000  0.40920000  1
  O  O828  1  0.10900000  0.27410000  0.29700000  1
  O  O829  1  0.88290000  0.31080000  0.31140000  1
  O  O830  1  0.57040000  0.96550000  0.94910000  1
  O  O831  1  0.53491000  0.88142000  0.90791000  1
  O  O832  1  0.53386000  0.95139000  0.85563000  1
  O  O833  1  0.49382000  0.59754000  0.61969000  1
  O  O834  1  0.51418000  0.64637000  0.55095000  1
  O  O835  1  0.44790000  0.60450000  0.78590000  1
  O  O836  1  0.48330000  0.69620000  0.90920000  1
  O  O837  1  0.39100000  0.72590000  0.79700000  1
  O  O838  1  0.61710000  0.68920000  0.81140000  1
  O  O839  1  0.07040000  0.53450000  0.05090000  1
  O  O840  1  0.03491000  0.61858000  0.09209000  1
  O  O841  1  0.03386000  0.54861000  0.14437000  1
  O  O842  1  0.99382000  0.90246000  0.38031000  1
  O  O843  1  0.01418000  0.85363000  0.44905000  1
  O  O844  1  0.94790000  0.89550000  0.21410000  1
  O  O845  1  0.98330000  0.80380000  0.09080000  1
  O  O846  1  0.89100000  0.77410000  0.20300000  1
  O  O847  1  0.11710000  0.81080000  0.18860000  1
