# generated using pymatgen
data_Zr3Cr3H18C50(NO4)7
_symmetry_space_group_name_H-M   'P 1'
_cell_length_a   26.06820000
_cell_length_b   26.06820000
_cell_length_c   26.06820000
_cell_angle_alpha   90.00000000
_cell_angle_beta   90.00000000
_cell_angle_gamma   90.00000000
_symmetry_Int_Tables_number   1
_chemical_formula_structural   Zr3Cr3H18C50(NO4)7
_chemical_formula_sum   'Zr24 Cr24 H144 C400 N56 O224'
_cell_volume   17714.67271393
_cell_formula_units_Z   8
loop_
 _symmetry_equiv_pos_site_id
 _symmetry_equiv_pos_as_xyz
  1  'x, y, z'
loop_
 _atom_site_type_symbol
 _atom_site_label
 _atom_site_symmetry_multiplicity
 _atom_site_fract_x
 _atom_site_fract_y
 _atom_site_fract_z
 _atom_site_occupancy
  Zr  Zr0  1  0.59186000  0.98436000  0.48123000  1
  Zr  Zr1  1  0.90814000  0.01564000  0.98123000  1
  Zr  Zr2  1  0.09186000  0.51564000  0.51877000  1
  Zr  Zr3  1  0.40814000  0.48436000  0.01877000  1
  Zr  Zr4  1  0.48123000  0.59186000  0.98436000  1
  Zr  Zr5  1  0.01877000  0.40814000  0.48436000  1
  Zr  Zr6  1  0.98123000  0.90814000  0.01564000  1
  Zr  Zr7  1  0.51877000  0.09186000  0.51564000  1
  Zr  Zr8  1  0.98436000  0.48123000  0.59186000  1
  Zr  Zr9  1  0.48436000  0.01877000  0.40814000  1
  Zr  Zr10  1  0.01564000  0.98123000  0.90814000  1
  Zr  Zr11  1  0.51564000  0.51877000  0.09186000  1
  Zr  Zr12  1  0.40814000  0.01564000  0.51877000  1
  Zr  Zr13  1  0.09186000  0.98436000  0.01877000  1
  Zr  Zr14  1  0.90814000  0.48436000  0.48123000  1
  Zr  Zr15  1  0.59186000  0.51564000  0.98123000  1
  Zr  Zr16  1  0.51877000  0.40814000  0.01564000  1
  Zr  Zr17  1  0.98123000  0.59186000  0.51564000  1
  Zr  Zr18  1  0.01877000  0.09186000  0.98436000  1
  Zr  Zr19  1  0.48123000  0.90814000  0.48436000  1
  Zr  Zr20  1  0.01564000  0.51877000  0.40814000  1
  Zr  Zr21  1  0.51564000  0.98123000  0.59186000  1
  Zr  Zr22  1  0.98436000  0.01877000  0.09186000  1
  Zr  Zr23  1  0.48436000  0.48123000  0.90814000  1
  Cr  Cr24  1  0.79741000  0.02216000  0.29368000  1
  Cr  Cr25  1  0.70259000  0.97784000  0.79368000  1
  Cr  Cr26  1  0.29741000  0.47784000  0.70632000  1
  Cr  Cr27  1  0.20259000  0.52216000  0.20632000  1
  Cr  Cr28  1  0.29368000  0.79741000  0.02216000  1
  Cr  Cr29  1  0.20632000  0.20259000  0.52216000  1
  Cr  Cr30  1  0.79368000  0.70259000  0.97784000  1
  Cr  Cr31  1  0.70632000  0.29741000  0.47784000  1
  Cr  Cr32  1  0.02216000  0.29368000  0.79741000  1
  Cr  Cr33  1  0.52216000  0.20632000  0.20259000  1
  Cr  Cr34  1  0.97784000  0.79368000  0.70259000  1
  Cr  Cr35  1  0.47784000  0.70632000  0.29741000  1
  Cr  Cr36  1  0.20259000  0.97784000  0.70632000  1
  Cr  Cr37  1  0.29741000  0.02216000  0.20632000  1
  Cr  Cr38  1  0.70259000  0.52216000  0.29368000  1
  Cr  Cr39  1  0.79741000  0.47784000  0.79368000  1
  Cr  Cr40  1  0.70632000  0.20259000  0.97784000  1
  Cr  Cr41  1  0.79368000  0.79741000  0.47784000  1
  Cr  Cr42  1  0.20632000  0.29741000  0.02216000  1
  Cr  Cr43  1  0.29368000  0.70259000  0.52216000  1
  Cr  Cr44  1  0.97784000  0.70632000  0.20259000  1
  Cr  Cr45  1  0.47784000  0.79368000  0.79741000  1
  Cr  Cr46  1  0.02216000  0.20632000  0.29741000  1
  Cr  Cr47  1  0.52216000  0.29368000  0.70259000  1
  H  H48  1  0.63420000  0.05160000  0.19490000  1
  H  H49  1  0.57640000  0.03550000  0.26110000  1
  H  H50  1  0.69640000  0.00770000  0.35420000  1
  H  H51  1  0.69520000  0.06180000  0.13520000  1
  H  H52  1  0.76150000  0.05570000  0.07500000  1
  H  H53  1  0.85870000  0.03190000  0.19280000  1
  H  H54  1  0.86580000  0.94840000  0.69490000  1
  H  H55  1  0.92360000  0.96450000  0.76110000  1
  H  H56  1  0.80360000  0.99230000  0.85420000  1
  H  H57  1  0.80480000  0.93820000  0.63520000  1
  H  H58  1  0.73850000  0.94430000  0.57500000  1
  H  H59  1  0.64130000  0.96810000  0.69280000  1
  H  H60  1  0.13420000  0.44840000  0.80510000  1
  H  H61  1  0.07640000  0.46450000  0.73890000  1
  H  H62  1  0.19640000  0.49230000  0.64580000  1
  H  H63  1  0.19520000  0.43820000  0.86480000  1
  H  H64  1  0.26150000  0.44430000  0.92500000  1
  H  H65  1  0.35870000  0.46810000  0.80720000  1
  H  H66  1  0.36580000  0.55160000  0.30510000  1
  H  H67  1  0.42360000  0.53550000  0.23890000  1
  H  H68  1  0.30360000  0.50770000  0.14580000  1
  H  H69  1  0.30480000  0.56180000  0.36480000  1
  H  H70  1  0.23850000  0.55570000  0.42500000  1
  H  H71  1  0.14130000  0.53190000  0.30720000  1
  H  H72  1  0.19490000  0.63420000  0.05160000  1
  H  H73  1  0.26110000  0.57640000  0.03550000  1
  H  H74  1  0.35420000  0.69640000  0.00770000  1
  H  H75  1  0.13520000  0.69520000  0.06180000  1
  H  H76  1  0.07500000  0.76150000  0.05570000  1
  H  H77  1  0.19280000  0.85870000  0.03190000  1
  H  H78  1  0.30510000  0.36580000  0.55160000  1
  H  H79  1  0.23890000  0.42360000  0.53550000  1
  H  H80  1  0.14580000  0.30360000  0.50770000  1
  H  H81  1  0.36480000  0.30480000  0.56180000  1
  H  H82  1  0.42500000  0.23850000  0.55570000  1
  H  H83  1  0.30720000  0.14130000  0.53190000  1
  H  H84  1  0.69490000  0.86580000  0.94840000  1
  H  H85  1  0.76110000  0.92360000  0.96450000  1
  H  H86  1  0.85420000  0.80360000  0.99230000  1
  H  H87  1  0.63520000  0.80480000  0.93820000  1
  H  H88  1  0.57500000  0.73850000  0.94430000  1
  H  H89  1  0.69280000  0.64130000  0.96810000  1
  H  H90  1  0.80510000  0.13420000  0.44840000  1
  H  H91  1  0.73890000  0.07640000  0.46450000  1
  H  H92  1  0.64580000  0.19640000  0.49230000  1
  H  H93  1  0.86480000  0.19520000  0.43820000  1
  H  H94  1  0.92500000  0.26150000  0.44430000  1
  H  H95  1  0.80720000  0.35870000  0.46810000  1
  H  H96  1  0.05160000  0.19490000  0.63420000  1
  H  H97  1  0.03550000  0.26110000  0.57640000  1
  H  H98  1  0.00770000  0.35420000  0.69640000  1
  H  H99  1  0.06180000  0.13520000  0.69520000  1
  H  H100  1  0.05570000  0.07500000  0.76150000  1
  H  H101  1  0.03190000  0.19280000  0.85870000  1
  H  H102  1  0.55160000  0.30510000  0.36580000  1
  H  H103  1  0.53550000  0.23890000  0.42360000  1
  H  H104  1  0.50770000  0.14580000  0.30360000  1
  H  H105  1  0.56180000  0.36480000  0.30480000  1
  H  H106  1  0.55570000  0.42500000  0.23850000  1
  H  H107  1  0.53190000  0.30720000  0.14130000  1
  H  H108  1  0.94840000  0.69490000  0.86580000  1
  H  H109  1  0.96450000  0.76110000  0.92360000  1
  H  H110  1  0.99230000  0.85420000  0.80360000  1
  H  H111  1  0.93820000  0.63520000  0.80480000  1
  H  H112  1  0.94430000  0.57500000  0.73850000  1
  H  H113  1  0.96810000  0.69280000  0.64130000  1
  H  H114  1  0.44840000  0.80510000  0.13420000  1
  H  H115  1  0.46450000  0.73890000  0.07640000  1
  H  H116  1  0.49230000  0.64580000  0.19640000  1
  H  H117  1  0.43820000  0.86480000  0.19520000  1
  H  H118  1  0.44430000  0.92500000  0.26150000  1
  H  H119  1  0.46810000  0.80720000  0.35870000  1
  H  H120  1  0.36580000  0.94840000  0.80510000  1
  H  H121  1  0.42360000  0.96450000  0.73890000  1
  H  H122  1  0.30360000  0.99230000  0.64580000  1
  H  H123  1  0.30480000  0.93820000  0.86480000  1
  H  H124  1  0.23850000  0.94430000  0.92500000  1
  H  H125  1  0.14130000  0.96810000  0.80720000  1
  H  H126  1  0.13420000  0.05160000  0.30510000  1
  H  H127  1  0.07640000  0.03550000  0.23890000  1
  H  H128  1  0.19640000  0.00770000  0.14580000  1
  H  H129  1  0.19520000  0.06180000  0.36480000  1
  H  H130  1  0.26150000  0.05570000  0.42500000  1
  H  H131  1  0.35870000  0.03190000  0.30720000  1
  H  H132  1  0.86580000  0.55160000  0.19490000  1
  H  H133  1  0.92360000  0.53550000  0.26110000  1
  H  H134  1  0.80360000  0.50770000  0.35420000  1
  H  H135  1  0.80480000  0.56180000  0.13520000  1
  H  H136  1  0.73850000  0.55570000  0.07500000  1
  H  H137  1  0.64130000  0.53190000  0.19280000  1
  H  H138  1  0.63420000  0.44840000  0.69490000  1
  H  H139  1  0.57640000  0.46450000  0.76110000  1
  H  H140  1  0.69640000  0.49230000  0.85420000  1
  H  H141  1  0.69520000  0.43820000  0.63520000  1
  H  H142  1  0.76150000  0.44430000  0.57500000  1
  H  H143  1  0.85870000  0.46810000  0.69280000  1
  H  H144  1  0.80510000  0.36580000  0.94840000  1
  H  H145  1  0.73890000  0.42360000  0.96450000  1
  H  H146  1  0.64580000  0.30360000  0.99230000  1
  H  H147  1  0.86480000  0.30480000  0.93820000  1
  H  H148  1  0.92500000  0.23850000  0.94430000  1
  H  H149  1  0.80720000  0.14130000  0.96810000  1
  H  H150  1  0.69490000  0.63420000  0.44840000  1
  H  H151  1  0.76110000  0.57640000  0.46450000  1
  H  H152  1  0.85420000  0.69640000  0.49230000  1
  H  H153  1  0.63520000  0.69520000  0.43820000  1
  H  H154  1  0.57500000  0.76150000  0.44430000  1
  H  H155  1  0.69280000  0.85870000  0.46810000  1
  H  H156  1  0.30510000  0.13420000  0.05160000  1
  H  H157  1  0.23890000  0.07640000  0.03550000  1
  H  H158  1  0.14580000  0.19640000  0.00770000  1
  H  H159  1  0.36480000  0.19520000  0.06180000  1
  H  H160  1  0.42500000  0.26150000  0.05570000  1
  H  H161  1  0.30720000  0.35870000  0.03190000  1
  H  H162  1  0.19490000  0.86580000  0.55160000  1
  H  H163  1  0.26110000  0.92360000  0.53550000  1
  H  H164  1  0.35420000  0.80360000  0.50770000  1
  H  H165  1  0.13520000  0.80480000  0.56180000  1
  H  H166  1  0.07500000  0.73850000  0.55570000  1
  H  H167  1  0.19280000  0.64130000  0.53190000  1
  H  H168  1  0.94840000  0.80510000  0.36580000  1
  H  H169  1  0.96450000  0.73890000  0.42360000  1
  H  H170  1  0.99230000  0.64580000  0.30360000  1
  H  H171  1  0.93820000  0.86480000  0.30480000  1
  H  H172  1  0.94430000  0.92500000  0.23850000  1
  H  H173  1  0.96810000  0.80720000  0.14130000  1
  H  H174  1  0.44840000  0.69490000  0.63420000  1
  H  H175  1  0.46450000  0.76110000  0.57640000  1
  H  H176  1  0.49230000  0.85420000  0.69640000  1
  H  H177  1  0.43820000  0.63520000  0.69520000  1
  H  H178  1  0.44430000  0.57500000  0.76150000  1
  H  H179  1  0.46810000  0.69280000  0.85870000  1
  H  H180  1  0.05160000  0.30510000  0.13420000  1
  H  H181  1  0.03550000  0.23890000  0.07640000  1
  H  H182  1  0.00770000  0.14580000  0.19640000  1
  H  H183  1  0.06180000  0.36480000  0.19520000  1
  H  H184  1  0.05570000  0.42500000  0.26150000  1
  H  H185  1  0.03190000  0.30720000  0.35870000  1
  H  H186  1  0.55160000  0.19490000  0.86580000  1
  H  H187  1  0.53550000  0.26110000  0.92360000  1
  H  H188  1  0.50770000  0.35420000  0.80360000  1
  H  H189  1  0.56180000  0.13520000  0.80480000  1
  H  H190  1  0.55570000  0.07500000  0.73850000  1
  H  H191  1  0.53190000  0.19280000  0.64130000  1
  C  C192  1  0.69877000  0.03710000  0.23649000  1
  C  C193  1  0.64596000  0.04200000  0.22714000  1
  C  C194  1  0.61148000  0.03230000  0.26653000  1
  C  C195  1  0.63064000  0.01780000  0.31463000  1
  C  C196  1  0.68380000  0.01590000  0.32188000  1
  C  C197  1  0.73831000  0.04240000  0.19686000  1
  C  C198  1  0.72831000  0.05340000  0.14556000  1
  C  C199  1  0.76786000  0.05180000  0.10993000  1
  C  C200  1  0.81782000  0.04399000  0.12849000  1
  C  C201  1  0.82535000  0.03620000  0.18082000  1
  C  C202  1  0.59655000  0.00803000  0.35959000  1
  C  C203  1  0.86316000  0.03980000  0.09374000  1
  C  C204  1  0.86750000  0.01360000  0.29250000  1
  C  C205  1  0.79840000  0.01550000  0.36400000  1
  C  C206  1  0.80410000  0.08960000  0.30670000  1
  C  C207  1  0.79930000  0.95430000  0.28660000  1
  C  C208  1  0.64440000  0.14440000  0.35560000  1
  C  C209  1  0.67590000  0.17590000  0.32410000  1
  C  C210  1  0.80123000  0.96290000  0.73649000  1
  C  C211  1  0.85404000  0.95800000  0.72714000  1
  C  C212  1  0.88852000  0.96770000  0.76653000  1
  C  C213  1  0.86936000  0.98220000  0.81463000  1
  C  C214  1  0.81620000  0.98410000  0.82188000  1
  C  C215  1  0.76169000  0.95760000  0.69686000  1
  C  C216  1  0.77169000  0.94660000  0.64556000  1
  C  C217  1  0.73214000  0.94820000  0.60993000  1
  C  C218  1  0.68218000  0.95601000  0.62849000  1
  C  C219  1  0.67465000  0.96380000  0.68082000  1
  C  C220  1  0.90345000  0.99197000  0.85959000  1
  C  C221  1  0.63684000  0.96020000  0.59374000  1
  C  C222  1  0.63250000  0.98640000  0.79250000  1
  C  C223  1  0.70160000  0.98450000  0.86400000  1
  C  C224  1  0.69590000  0.91040000  0.80670000  1
  C  C225  1  0.70070000  0.04570000  0.78660000  1
  C  C226  1  0.85560000  0.85560000  0.85560000  1
  C  C227  1  0.82410000  0.82410000  0.82410000  1
  C  C228  1  0.19877000  0.46290000  0.76351000  1
  C  C229  1  0.14596000  0.45800000  0.77286000  1
  C  C230  1  0.11148000  0.46770000  0.73347000  1
  C  C231  1  0.13064000  0.48220000  0.68537000  1
  C  C232  1  0.18380000  0.48410000  0.67812000  1
  C  C233  1  0.23831000  0.45760000  0.80314000  1
  C  C234  1  0.22831000  0.44660000  0.85444000  1
  C  C235  1  0.26786000  0.44820000  0.89007000  1
  C  C236  1  0.31782000  0.45601000  0.87151000  1
  C  C237  1  0.32535000  0.46380000  0.81918000  1
  C  C238  1  0.09655000  0.49197000  0.64041000  1
  C  C239  1  0.36316000  0.46020000  0.90626000  1
  C  C240  1  0.36750000  0.48640000  0.70750000  1
  C  C241  1  0.29840000  0.48450000  0.63600000  1
  C  C242  1  0.30410000  0.41040000  0.69330000  1
  C  C243  1  0.29930000  0.54570000  0.71340000  1
  C  C244  1  0.14440000  0.35560000  0.64440000  1
  C  C245  1  0.17590000  0.32410000  0.67590000  1
  C  C246  1  0.30123000  0.53710000  0.26351000  1
  C  C247  1  0.35404000  0.54200000  0.27286000  1
  C  C248  1  0.38852000  0.53230000  0.23347000  1
  C  C249  1  0.36936000  0.51780000  0.18537000  1
  C  C250  1  0.31620000  0.51590000  0.17812000  1
  C  C251  1  0.26169000  0.54240000  0.30314000  1
  C  C252  1  0.27169000  0.55340000  0.35444000  1
  C  C253  1  0.23214000  0.55180000  0.39007000  1
  C  C254  1  0.18218000  0.54399000  0.37151000  1
  C  C255  1  0.17465000  0.53620000  0.31918000  1
  C  C256  1  0.40345000  0.50803000  0.14041000  1
  C  C257  1  0.13684000  0.53980000  0.40626000  1
  C  C258  1  0.13250000  0.51360000  0.20750000  1
  C  C259  1  0.20160000  0.51550000  0.13600000  1
  C  C260  1  0.19590000  0.58960000  0.19330000  1
  C  C261  1  0.20070000  0.45430000  0.21340000  1
  C  C262  1  0.35560000  0.64440000  0.14440000  1
  C  C263  1  0.32410000  0.67590000  0.17590000  1
  C  C264  1  0.23649000  0.69877000  0.03710000  1
  C  C265  1  0.22714000  0.64596000  0.04200000  1
  C  C266  1  0.26653000  0.61148000  0.03230000  1
  C  C267  1  0.31463000  0.63064000  0.01780000  1
  C  C268  1  0.32188000  0.68380000  0.01590000  1
  C  C269  1  0.19686000  0.73831000  0.04240000  1
  C  C270  1  0.14556000  0.72831000  0.05340000  1
  C  C271  1  0.10993000  0.76786000  0.05180000  1
  C  C272  1  0.12849000  0.81782000  0.04399000  1
  C  C273  1  0.18082000  0.82535000  0.03620000  1
  C  C274  1  0.35959000  0.59655000  0.00803000  1
  C  C275  1  0.09374000  0.86316000  0.03980000  1
  C  C276  1  0.29250000  0.86750000  0.01360000  1
  C  C277  1  0.36400000  0.79840000  0.01550000  1
  C  C278  1  0.30670000  0.80410000  0.08960000  1
  C  C279  1  0.28660000  0.79930000  0.95430000  1
  C  C280  1  0.26351000  0.30123000  0.53710000  1
  C  C281  1  0.27286000  0.35404000  0.54200000  1
  C  C282  1  0.23347000  0.38852000  0.53230000  1
  C  C283  1  0.18537000  0.36936000  0.51780000  1
  C  C284  1  0.17812000  0.31620000  0.51590000  1
  C  C285  1  0.30314000  0.26169000  0.54240000  1
  C  C286  1  0.35444000  0.27169000  0.55340000  1
  C  C287  1  0.39007000  0.23214000  0.55180000  1
  C  C288  1  0.37151000  0.18218000  0.54399000  1
  C  C289  1  0.31918000  0.17465000  0.53620000  1
  C  C290  1  0.14041000  0.40345000  0.50803000  1
  C  C291  1  0.40626000  0.13684000  0.53980000  1
  C  C292  1  0.20750000  0.13250000  0.51360000  1
  C  C293  1  0.13600000  0.20160000  0.51550000  1
  C  C294  1  0.19330000  0.19590000  0.58960000  1
  C  C295  1  0.21340000  0.20070000  0.45430000  1
  C  C296  1  0.73649000  0.80123000  0.96290000  1
  C  C297  1  0.72714000  0.85404000  0.95800000  1
  C  C298  1  0.76653000  0.88852000  0.96770000  1
  C  C299  1  0.81463000  0.86936000  0.98220000  1
  C  C300  1  0.82188000  0.81620000  0.98410000  1
  C  C301  1  0.69686000  0.76169000  0.95760000  1
  C  C302  1  0.64556000  0.77169000  0.94660000  1
  C  C303  1  0.60993000  0.73214000  0.94820000  1
  C  C304  1  0.62849000  0.68218000  0.95601000  1
  C  C305  1  0.68082000  0.67465000  0.96380000  1
  C  C306  1  0.85959000  0.90345000  0.99197000  1
  C  C307  1  0.59374000  0.63684000  0.96020000  1
  C  C308  1  0.79250000  0.63250000  0.98640000  1
  C  C309  1  0.86400000  0.70160000  0.98450000  1
  C  C310  1  0.80670000  0.69590000  0.91040000  1
  C  C311  1  0.78660000  0.70070000  0.04570000  1
  C  C312  1  0.76351000  0.19877000  0.46290000  1
  C  C313  1  0.77286000  0.14596000  0.45800000  1
  C  C314  1  0.73347000  0.11148000  0.46770000  1
  C  C315  1  0.68537000  0.13064000  0.48220000  1
  C  C316  1  0.67812000  0.18380000  0.48410000  1
  C  C317  1  0.80314000  0.23831000  0.45760000  1
  C  C318  1  0.85444000  0.22831000  0.44660000  1
  C  C319  1  0.89007000  0.26786000  0.44820000  1
  C  C320  1  0.87151000  0.31782000  0.45601000  1
  C  C321  1  0.81918000  0.32535000  0.46380000  1
  C  C322  1  0.64041000  0.09655000  0.49197000  1
  C  C323  1  0.90626000  0.36316000  0.46020000  1
  C  C324  1  0.70750000  0.36750000  0.48640000  1
  C  C325  1  0.63600000  0.29840000  0.48450000  1
  C  C326  1  0.69330000  0.30410000  0.41040000  1
  C  C327  1  0.71340000  0.29930000  0.54570000  1
  C  C328  1  0.03710000  0.23649000  0.69877000  1
  C  C329  1  0.04200000  0.22714000  0.64596000  1
  C  C330  1  0.03230000  0.26653000  0.61148000  1
  C  C331  1  0.01780000  0.31463000  0.63064000  1
  C  C332  1  0.01590000  0.32188000  0.68380000  1
  C  C333  1  0.04240000  0.19686000  0.73831000  1
  C  C334  1  0.05340000  0.14556000  0.72831000  1
  C  C335  1  0.05180000  0.10993000  0.76786000  1
  C  C336  1  0.04399000  0.12849000  0.81782000  1
  C  C337  1  0.03620000  0.18082000  0.82535000  1
  C  C338  1  0.00803000  0.35959000  0.59655000  1
  C  C339  1  0.03980000  0.09374000  0.86316000  1
  C  C340  1  0.01360000  0.29250000  0.86750000  1
  C  C341  1  0.01550000  0.36400000  0.79840000  1
  C  C342  1  0.08960000  0.30670000  0.80410000  1
  C  C343  1  0.95430000  0.28660000  0.79930000  1
  C  C344  1  0.53710000  0.26351000  0.30123000  1
  C  C345  1  0.54200000  0.27286000  0.35404000  1
  C  C346  1  0.53230000  0.23347000  0.38852000  1
  C  C347  1  0.51780000  0.18537000  0.36936000  1
  C  C348  1  0.51590000  0.17812000  0.31620000  1
  C  C349  1  0.54240000  0.30314000  0.26169000  1
  C  C350  1  0.55340000  0.35444000  0.27169000  1
  C  C351  1  0.55180000  0.39007000  0.23214000  1
  C  C352  1  0.54399000  0.37151000  0.18218000  1
  C  C353  1  0.53620000  0.31918000  0.17465000  1
  C  C354  1  0.50803000  0.14041000  0.40345000  1
  C  C355  1  0.53980000  0.40626000  0.13684000  1
  C  C356  1  0.51360000  0.20750000  0.13250000  1
  C  C357  1  0.51550000  0.13600000  0.20160000  1
  C  C358  1  0.58960000  0.19330000  0.19590000  1
  C  C359  1  0.45430000  0.21340000  0.20070000  1
  C  C360  1  0.96290000  0.73649000  0.80123000  1
  C  C361  1  0.95800000  0.72714000  0.85404000  1
  C  C362  1  0.96770000  0.76653000  0.88852000  1
  C  C363  1  0.98220000  0.81463000  0.86936000  1
  C  C364  1  0.98410000  0.82188000  0.81620000  1
  C  C365  1  0.95760000  0.69686000  0.76169000  1
  C  C366  1  0.94660000  0.64556000  0.77169000  1
  C  C367  1  0.94820000  0.60993000  0.73214000  1
  C  C368  1  0.95601000  0.62849000  0.68218000  1
  C  C369  1  0.96380000  0.68082000  0.67465000  1
  C  C370  1  0.99197000  0.85959000  0.90345000  1
  C  C371  1  0.96020000  0.59374000  0.63684000  1
  C  C372  1  0.98640000  0.79250000  0.63250000  1
  C  C373  1  0.98450000  0.86400000  0.70160000  1
  C  C374  1  0.91040000  0.80670000  0.69590000  1
  C  C375  1  0.04570000  0.78660000  0.70070000  1
  C  C376  1  0.46290000  0.76351000  0.19877000  1
  C  C377  1  0.45800000  0.77286000  0.14596000  1
  C  C378  1  0.46770000  0.73347000  0.11148000  1
  C  C379  1  0.48220000  0.68537000  0.13064000  1
  C  C380  1  0.48410000  0.67812000  0.18380000  1
  C  C381  1  0.45760000  0.80314000  0.23831000  1
  C  C382  1  0.44660000  0.85444000  0.22831000  1
  C  C383  1  0.44820000  0.89007000  0.26786000  1
  C  C384  1  0.45601000  0.87151000  0.31782000  1
  C  C385  1  0.46380000  0.81918000  0.32535000  1
  C  C386  1  0.49197000  0.64041000  0.09655000  1
  C  C387  1  0.46020000  0.90626000  0.36316000  1
  C  C388  1  0.48640000  0.70750000  0.36750000  1
  C  C389  1  0.48450000  0.63600000  0.29840000  1
  C  C390  1  0.41040000  0.69330000  0.30410000  1
  C  C391  1  0.54570000  0.71340000  0.29930000  1
  C  C392  1  0.30123000  0.96290000  0.76351000  1
  C  C393  1  0.35404000  0.95800000  0.77286000  1
  C  C394  1  0.38852000  0.96770000  0.73347000  1
  C  C395  1  0.36936000  0.98220000  0.68537000  1
  C  C396  1  0.31620000  0.98410000  0.67812000  1
  C  C397  1  0.26169000  0.95760000  0.80314000  1
  C  C398  1  0.27169000  0.94660000  0.85444000  1
  C  C399  1  0.23214000  0.94820000  0.89007000  1
  C  C400  1  0.18218000  0.95601000  0.87151000  1
  C  C401  1  0.17465000  0.96380000  0.81918000  1
  C  C402  1  0.40345000  0.99197000  0.64041000  1
  C  C403  1  0.13684000  0.96020000  0.90626000  1
  C  C404  1  0.13250000  0.98640000  0.70750000  1
  C  C405  1  0.20160000  0.98450000  0.63600000  1
  C  C406  1  0.19590000  0.91040000  0.69330000  1
  C  C407  1  0.20070000  0.04570000  0.71340000  1
  C  C408  1  0.35560000  0.85560000  0.64440000  1
  C  C409  1  0.32410000  0.82410000  0.67590000  1
  C  C410  1  0.19877000  0.03710000  0.26351000  1
  C  C411  1  0.14596000  0.04200000  0.27286000  1
  C  C412  1  0.11148000  0.03230000  0.23347000  1
  C  C413  1  0.13064000  0.01780000  0.18537000  1
  C  C414  1  0.18380000  0.01590000  0.17812000  1
  C  C415  1  0.23831000  0.04240000  0.30314000  1
  C  C416  1  0.22831000  0.05340000  0.35444000  1
  C  C417  1  0.26786000  0.05180000  0.39007000  1
  C  C418  1  0.31782000  0.04399000  0.37151000  1
  C  C419  1  0.32535000  0.03620000  0.31918000  1
  C  C420  1  0.09655000  0.00803000  0.14041000  1
  C  C421  1  0.36316000  0.03980000  0.40626000  1
  C  C422  1  0.36750000  0.01360000  0.20750000  1
  C  C423  1  0.29840000  0.01550000  0.13600000  1
  C  C424  1  0.30410000  0.08960000  0.19330000  1
  C  C425  1  0.29930000  0.95430000  0.21340000  1
  C  C426  1  0.14440000  0.14440000  0.14440000  1
  C  C427  1  0.17590000  0.17590000  0.17590000  1
  C  C428  1  0.80123000  0.53710000  0.23649000  1
  C  C429  1  0.85404000  0.54200000  0.22714000  1
  C  C430  1  0.88852000  0.53230000  0.26653000  1
  C  C431  1  0.86936000  0.51780000  0.31463000  1
  C  C432  1  0.81620000  0.51590000  0.32188000  1
  C  C433  1  0.76169000  0.54240000  0.19686000  1
  C  C434  1  0.77169000  0.55340000  0.14556000  1
  C  C435  1  0.73214000  0.55180000  0.10993000  1
  C  C436  1  0.68218000  0.54399000  0.12849000  1
  C  C437  1  0.67465000  0.53620000  0.18082000  1
  C  C438  1  0.90345000  0.50803000  0.35959000  1
  C  C439  1  0.63684000  0.53980000  0.09374000  1
  C  C440  1  0.63250000  0.51360000  0.29250000  1
  C  C441  1  0.70160000  0.51550000  0.36400000  1
  C  C442  1  0.69590000  0.58960000  0.30670000  1
  C  C443  1  0.70070000  0.45430000  0.28660000  1
  C  C444  1  0.85560000  0.64440000  0.35560000  1
  C  C445  1  0.82410000  0.67590000  0.32410000  1
  C  C446  1  0.69877000  0.46290000  0.73649000  1
  C  C447  1  0.64596000  0.45800000  0.72714000  1
  C  C448  1  0.61148000  0.46770000  0.76653000  1
  C  C449  1  0.63064000  0.48220000  0.81463000  1
  C  C450  1  0.68380000  0.48410000  0.82188000  1
  C  C451  1  0.73831000  0.45760000  0.69686000  1
  C  C452  1  0.72831000  0.44660000  0.64556000  1
  C  C453  1  0.76786000  0.44820000  0.60993000  1
  C  C454  1  0.81782000  0.45601000  0.62849000  1
  C  C455  1  0.82535000  0.46380000  0.68082000  1
  C  C456  1  0.59655000  0.49197000  0.85959000  1
  C  C457  1  0.86316000  0.46020000  0.59374000  1
  C  C458  1  0.86750000  0.48640000  0.79250000  1
  C  C459  1  0.79840000  0.48450000  0.86400000  1
  C  C460  1  0.80410000  0.41040000  0.80670000  1
  C  C461  1  0.79930000  0.54570000  0.78660000  1
  C  C462  1  0.64440000  0.35560000  0.85560000  1
  C  C463  1  0.67590000  0.32410000  0.82410000  1
  C  C464  1  0.76351000  0.30123000  0.96290000  1
  C  C465  1  0.77286000  0.35404000  0.95800000  1
  C  C466  1  0.73347000  0.38852000  0.96770000  1
  C  C467  1  0.68537000  0.36936000  0.98220000  1
  C  C468  1  0.67812000  0.31620000  0.98410000  1
  C  C469  1  0.80314000  0.26169000  0.95760000  1
  C  C470  1  0.85444000  0.27169000  0.94660000  1
  C  C471  1  0.89007000  0.23214000  0.94820000  1
  C  C472  1  0.87151000  0.18218000  0.95601000  1
  C  C473  1  0.81918000  0.17465000  0.96380000  1
  C  C474  1  0.64041000  0.40345000  0.99197000  1
  C  C475  1  0.90626000  0.13684000  0.96020000  1
  C  C476  1  0.70750000  0.13250000  0.98640000  1
  C  C477  1  0.63600000  0.20160000  0.98450000  1
  C  C478  1  0.69330000  0.19590000  0.91040000  1
  C  C479  1  0.71340000  0.20070000  0.04570000  1
  C  C480  1  0.73649000  0.69877000  0.46290000  1
  C  C481  1  0.72714000  0.64596000  0.45800000  1
  C  C482  1  0.76653000  0.61148000  0.46770000  1
  C  C483  1  0.81463000  0.63064000  0.48220000  1
  C  C484  1  0.82188000  0.68380000  0.48410000  1
  C  C485  1  0.69686000  0.73831000  0.45760000  1
  C  C486  1  0.64556000  0.72831000  0.44660000  1
  C  C487  1  0.60993000  0.76786000  0.44820000  1
  C  C488  1  0.62849000  0.81782000  0.45601000  1
  C  C489  1  0.68082000  0.82535000  0.46380000  1
  C  C490  1  0.85959000  0.59655000  0.49197000  1
  C  C491  1  0.59374000  0.86316000  0.46020000  1
  C  C492  1  0.79250000  0.86750000  0.48640000  1
  C  C493  1  0.86400000  0.79840000  0.48450000  1
  C  C494  1  0.80670000  0.80410000  0.41040000  1
  C  C495  1  0.78660000  0.79930000  0.54570000  1
  C  C496  1  0.26351000  0.19877000  0.03710000  1
  C  C497  1  0.27286000  0.14596000  0.04200000  1
  C  C498  1  0.23347000  0.11148000  0.03230000  1
  C  C499  1  0.18537000  0.13064000  0.01780000  1
  C  C500  1  0.17812000  0.18380000  0.01590000  1
  C  C501  1  0.30314000  0.23831000  0.04240000  1
  C  C502  1  0.35444000  0.22831000  0.05340000  1
  C  C503  1  0.39007000  0.26786000  0.05180000  1
  C  C504  1  0.37151000  0.31782000  0.04399000  1
  C  C505  1  0.31918000  0.32535000  0.03620000  1
  C  C506  1  0.14041000  0.09655000  0.00803000  1
  C  C507  1  0.40626000  0.36316000  0.03980000  1
  C  C508  1  0.20750000  0.36750000  0.01360000  1
  C  C509  1  0.13600000  0.29840000  0.01550000  1
  C  C510  1  0.19330000  0.30410000  0.08960000  1
  C  C511  1  0.21340000  0.29930000  0.95430000  1
  C  C512  1  0.23649000  0.80123000  0.53710000  1
  C  C513  1  0.22714000  0.85404000  0.54200000  1
  C  C514  1  0.26653000  0.88852000  0.53230000  1
  C  C515  1  0.31463000  0.86936000  0.51780000  1
  C  C516  1  0.32188000  0.81620000  0.51590000  1
  C  C517  1  0.19686000  0.76169000  0.54240000  1
  C  C518  1  0.14556000  0.77169000  0.55340000  1
  C  C519  1  0.10993000  0.73214000  0.55180000  1
  C  C520  1  0.12849000  0.68218000  0.54399000  1
  C  C521  1  0.18082000  0.67465000  0.53620000  1
  C  C522  1  0.35959000  0.90345000  0.50803000  1
  C  C523  1  0.09374000  0.63684000  0.53980000  1
  C  C524  1  0.29250000  0.63250000  0.51360000  1
  C  C525  1  0.36400000  0.70160000  0.51550000  1
  C  C526  1  0.30670000  0.69590000  0.58960000  1
  C  C527  1  0.28660000  0.70070000  0.45430000  1
  C  C528  1  0.96290000  0.76351000  0.30123000  1
  C  C529  1  0.95800000  0.77286000  0.35404000  1
  C  C530  1  0.96770000  0.73347000  0.38852000  1
  C  C531  1  0.98220000  0.68537000  0.36936000  1
  C  C532  1  0.98410000  0.67812000  0.31620000  1
  C  C533  1  0.95760000  0.80314000  0.26169000  1
  C  C534  1  0.94660000  0.85444000  0.27169000  1
  C  C535  1  0.94820000  0.89007000  0.23214000  1
  C  C536  1  0.95601000  0.87151000  0.18218000  1
  C  C537  1  0.96380000  0.81918000  0.17465000  1
  C  C538  1  0.99197000  0.64041000  0.40345000  1
  C  C539  1  0.96020000  0.90626000  0.13684000  1
  C  C540  1  0.98640000  0.70750000  0.13250000  1
  C  C541  1  0.98450000  0.63600000  0.20160000  1
  C  C542  1  0.91040000  0.69330000  0.19590000  1
  C  C543  1  0.04570000  0.71340000  0.20070000  1
  C  C544  1  0.46290000  0.73649000  0.69877000  1
  C  C545  1  0.45800000  0.72714000  0.64596000  1
  C  C546  1  0.46770000  0.76653000  0.61148000  1
  C  C547  1  0.48220000  0.81463000  0.63064000  1
  C  C548  1  0.48410000  0.82188000  0.68380000  1
  C  C549  1  0.45760000  0.69686000  0.73831000  1
  C  C550  1  0.44660000  0.64556000  0.72831000  1
  C  C551  1  0.44820000  0.60993000  0.76786000  1
  C  C552  1  0.45601000  0.62849000  0.81782000  1
  C  C553  1  0.46380000  0.68082000  0.82535000  1
  C  C554  1  0.49197000  0.85959000  0.59655000  1
  C  C555  1  0.46020000  0.59374000  0.86316000  1
  C  C556  1  0.48640000  0.79250000  0.86750000  1
  C  C557  1  0.48450000  0.86400000  0.79840000  1
  C  C558  1  0.41040000  0.80670000  0.80410000  1
  C  C559  1  0.54570000  0.78660000  0.79930000  1
  C  C560  1  0.03710000  0.26351000  0.19877000  1
  C  C561  1  0.04200000  0.27286000  0.14596000  1
  C  C562  1  0.03230000  0.23347000  0.11148000  1
  C  C563  1  0.01780000  0.18537000  0.13064000  1
  C  C564  1  0.01590000  0.17812000  0.18380000  1
  C  C565  1  0.04240000  0.30314000  0.23831000  1
  C  C566  1  0.05340000  0.35444000  0.22831000  1
  C  C567  1  0.05180000  0.39007000  0.26786000  1
  C  C568  1  0.04399000  0.37151000  0.31782000  1
  C  C569  1  0.03620000  0.31918000  0.32535000  1
  C  C570  1  0.00803000  0.14041000  0.09655000  1
  C  C571  1  0.03980000  0.40626000  0.36316000  1
  C  C572  1  0.01360000  0.20750000  0.36750000  1
  C  C573  1  0.01550000  0.13600000  0.29840000  1
  C  C574  1  0.08960000  0.19330000  0.30410000  1
  C  C575  1  0.95430000  0.21340000  0.29930000  1
  C  C576  1  0.53710000  0.23649000  0.80123000  1
  C  C577  1  0.54200000  0.22714000  0.85404000  1
  C  C578  1  0.53230000  0.26653000  0.88852000  1
  C  C579  1  0.51780000  0.31463000  0.86936000  1
  C  C580  1  0.51590000  0.32188000  0.81620000  1
  C  C581  1  0.54240000  0.19686000  0.76169000  1
  C  C582  1  0.55340000  0.14556000  0.77169000  1
  C  C583  1  0.55180000  0.10993000  0.73214000  1
  C  C584  1  0.54399000  0.12849000  0.68218000  1
  C  C585  1  0.53620000  0.18082000  0.67465000  1
  C  C586  1  0.50803000  0.35959000  0.90345000  1
  C  C587  1  0.53980000  0.09374000  0.63684000  1
  C  C588  1  0.51360000  0.29250000  0.63250000  1
  C  C589  1  0.51550000  0.36400000  0.70160000  1
  C  C590  1  0.58960000  0.30670000  0.69590000  1
  C  C591  1  0.45430000  0.28660000  0.70070000  1
  N  N592  1  0.71744000  0.02560000  0.28381000  1
  N  N593  1  0.78652000  0.03480000  0.21466000  1
  N  N594  1  0.61850000  0.11850000  0.38150000  1
  N  N595  1  0.78256000  0.97440000  0.78381000  1
  N  N596  1  0.71348000  0.96520000  0.71466000  1
  N  N597  1  0.88150000  0.88150000  0.88150000  1
  N  N598  1  0.21744000  0.47440000  0.71619000  1
  N  N599  1  0.28652000  0.46520000  0.78534000  1
  N  N600  1  0.11850000  0.38150000  0.61850000  1
  N  N601  1  0.28256000  0.52560000  0.21619000  1
  N  N602  1  0.21348000  0.53480000  0.28534000  1
  N  N603  1  0.38150000  0.61850000  0.11850000  1
  N  N604  1  0.28381000  0.71744000  0.02560000  1
  N  N605  1  0.21466000  0.78652000  0.03480000  1
  N  N606  1  0.21619000  0.28256000  0.52560000  1
  N  N607  1  0.28534000  0.21348000  0.53480000  1
  N  N608  1  0.78381000  0.78256000  0.97440000  1
  N  N609  1  0.71466000  0.71348000  0.96520000  1
  N  N610  1  0.71619000  0.21744000  0.47440000  1
  N  N611  1  0.78534000  0.28652000  0.46520000  1
  N  N612  1  0.02560000  0.28381000  0.71744000  1
  N  N613  1  0.03480000  0.21466000  0.78652000  1
  N  N614  1  0.52560000  0.21619000  0.28256000  1
  N  N615  1  0.53480000  0.28534000  0.21348000  1
  N  N616  1  0.97440000  0.78381000  0.78256000  1
  N  N617  1  0.96520000  0.71466000  0.71348000  1
  N  N618  1  0.47440000  0.71619000  0.21744000  1
  N  N619  1  0.46520000  0.78534000  0.28652000  1
  N  N620  1  0.28256000  0.97440000  0.71619000  1
  N  N621  1  0.21348000  0.96520000  0.78534000  1
  N  N622  1  0.38150000  0.88150000  0.61850000  1
  N  N623  1  0.21744000  0.02560000  0.21619000  1
  N  N624  1  0.28652000  0.03480000  0.28534000  1
  N  N625  1  0.11850000  0.11850000  0.11850000  1
  N  N626  1  0.78256000  0.52560000  0.28381000  1
  N  N627  1  0.71348000  0.53480000  0.21466000  1
  N  N628  1  0.88150000  0.61850000  0.38150000  1
  N  N629  1  0.71744000  0.47440000  0.78381000  1
  N  N630  1  0.78652000  0.46520000  0.71466000  1
  N  N631  1  0.61850000  0.38150000  0.88150000  1
  N  N632  1  0.71619000  0.28256000  0.97440000  1
  N  N633  1  0.78534000  0.21348000  0.96520000  1
  N  N634  1  0.78381000  0.71744000  0.47440000  1
  N  N635  1  0.71466000  0.78652000  0.46520000  1
  N  N636  1  0.21619000  0.21744000  0.02560000  1
  N  N637  1  0.28534000  0.28652000  0.03480000  1
  N  N638  1  0.28381000  0.78256000  0.52560000  1
  N  N639  1  0.21466000  0.71348000  0.53480000  1
  N  N640  1  0.97440000  0.71619000  0.28256000  1
  N  N641  1  0.96520000  0.78534000  0.21348000  1
  N  N642  1  0.47440000  0.78381000  0.71744000  1
  N  N643  1  0.46520000  0.71466000  0.78652000  1
  N  N644  1  0.02560000  0.21619000  0.21744000  1
  N  N645  1  0.03480000  0.28534000  0.28652000  1
  N  N646  1  0.52560000  0.28381000  0.78256000  1
  N  N647  1  0.53480000  0.21466000  0.71348000  1
  O  O648  1  0.61869000  0.99351000  0.40067000  1
  O  O649  1  0.54892000  0.01548000  0.35282000  1
  O  O650  1  0.90653000  0.03850000  0.11658000  1
  O  O651  1  0.85510000  0.03701000  0.04567000  1
  O  O652  1  0.91180000  0.00720000  0.29360000  1
  O  O653  1  0.79950000  0.01160000  0.40880000  1
  O  O654  1  0.80860000  0.13660000  0.32100000  1
  O  O655  1  0.80640000  0.90750000  0.28720000  1
  O  O656  1  0.53243000  0.94919000  0.42869000  1
  O  O657  1  0.55345000  0.05345000  0.44655000  1
  O  O658  1  0.88131000  0.00649000  0.90067000  1
  O  O659  1  0.95108000  0.98452000  0.85282000  1
  O  O660  1  0.59347000  0.96150000  0.61658000  1
  O  O661  1  0.64490000  0.96299000  0.54567000  1
  O  O662  1  0.58820000  0.99280000  0.79360000  1
  O  O663  1  0.70050000  0.98840000  0.90880000  1
  O  O664  1  0.69140000  0.86340000  0.82100000  1
  O  O665  1  0.69360000  0.09250000  0.78720000  1
  O  O666  1  0.96757000  0.05081000  0.92869000  1
  O  O667  1  0.94655000  0.94655000  0.94655000  1
  O  O668  1  0.11869000  0.50649000  0.59933000  1
  O  O669  1  0.04892000  0.48452000  0.64718000  1
  O  O670  1  0.40653000  0.46150000  0.88342000  1
  O  O671  1  0.35510000  0.46299000  0.95433000  1
  O  O672  1  0.41180000  0.49280000  0.70640000  1
  O  O673  1  0.29950000  0.48840000  0.59120000  1
  O  O674  1  0.30860000  0.36340000  0.67900000  1
  O  O675  1  0.30640000  0.59250000  0.71280000  1
  O  O676  1  0.03243000  0.55081000  0.57131000  1
  O  O677  1  0.05345000  0.44655000  0.55345000  1
  O  O678  1  0.38131000  0.49351000  0.09933000  1
  O  O679  1  0.45108000  0.51548000  0.14718000  1
  O  O680  1  0.09347000  0.53850000  0.38342000  1
  O  O681  1  0.14490000  0.53701000  0.45433000  1
  O  O682  1  0.08820000  0.50720000  0.20640000  1
  O  O683  1  0.20050000  0.51160000  0.09120000  1
  O  O684  1  0.19140000  0.63660000  0.17900000  1
  O  O685  1  0.19360000  0.40750000  0.21280000  1
  O  O686  1  0.46757000  0.44919000  0.07131000  1
  O  O687  1  0.44655000  0.55345000  0.05345000  1
  O  O688  1  0.40067000  0.61869000  0.99351000  1
  O  O689  1  0.35282000  0.54892000  0.01548000  1
  O  O690  1  0.11658000  0.90653000  0.03850000  1
  O  O691  1  0.04567000  0.85510000  0.03701000  1
  O  O692  1  0.29360000  0.91180000  0.00720000  1
  O  O693  1  0.40880000  0.79950000  0.01160000  1
  O  O694  1  0.32100000  0.80860000  0.13660000  1
  O  O695  1  0.28720000  0.80640000  0.90750000  1
  O  O696  1  0.42869000  0.53243000  0.94919000  1
  O  O697  1  0.09933000  0.38131000  0.49351000  1
  O  O698  1  0.14718000  0.45108000  0.51548000  1
  O  O699  1  0.38342000  0.09347000  0.53850000  1
  O  O700  1  0.45433000  0.14490000  0.53701000  1
  O  O701  1  0.20640000  0.08820000  0.50720000  1
  O  O702  1  0.09120000  0.20050000  0.51160000  1
  O  O703  1  0.17900000  0.19140000  0.63660000  1
  O  O704  1  0.21280000  0.19360000  0.40750000  1
  O  O705  1  0.07131000  0.46757000  0.44919000  1
  O  O706  1  0.90067000  0.88131000  0.00649000  1
  O  O707  1  0.85282000  0.95108000  0.98452000  1
  O  O708  1  0.61658000  0.59347000  0.96150000  1
  O  O709  1  0.54567000  0.64490000  0.96299000  1
  O  O710  1  0.79360000  0.58820000  0.99280000  1
  O  O711  1  0.90880000  0.70050000  0.98840000  1
  O  O712  1  0.82100000  0.69140000  0.86340000  1
  O  O713  1  0.78720000  0.69360000  0.09250000  1
  O  O714  1  0.92869000  0.96757000  0.05081000  1
  O  O715  1  0.59933000  0.11869000  0.50649000  1
  O  O716  1  0.64718000  0.04892000  0.48452000  1
  O  O717  1  0.88342000  0.40653000  0.46150000  1
  O  O718  1  0.95433000  0.35510000  0.46299000  1
  O  O719  1  0.70640000  0.41180000  0.49280000  1
  O  O720  1  0.59120000  0.29950000  0.48840000  1
  O  O721  1  0.67900000  0.30860000  0.36340000  1
  O  O722  1  0.71280000  0.30640000  0.59250000  1
  O  O723  1  0.57131000  0.03243000  0.55081000  1
  O  O724  1  0.99351000  0.40067000  0.61869000  1
  O  O725  1  0.01548000  0.35282000  0.54892000  1
  O  O726  1  0.03850000  0.11658000  0.90653000  1
  O  O727  1  0.03701000  0.04567000  0.85510000  1
  O  O728  1  0.00720000  0.29360000  0.91180000  1
  O  O729  1  0.01160000  0.40880000  0.79950000  1
  O  O730  1  0.13660000  0.32100000  0.80860000  1
  O  O731  1  0.90750000  0.28720000  0.80640000  1
  O  O732  1  0.94919000  0.42869000  0.53243000  1
  O  O733  1  0.49351000  0.09933000  0.38131000  1
  O  O734  1  0.51548000  0.14718000  0.45108000  1
  O  O735  1  0.53850000  0.38342000  0.09347000  1
  O  O736  1  0.53701000  0.45433000  0.14490000  1
  O  O737  1  0.50720000  0.20640000  0.08820000  1
  O  O738  1  0.51160000  0.09120000  0.20050000  1
  O  O739  1  0.63660000  0.17900000  0.19140000  1
  O  O740  1  0.40750000  0.21280000  0.19360000  1
  O  O741  1  0.44919000  0.07131000  0.46757000  1
  O  O742  1  0.00649000  0.90067000  0.88131000  1
  O  O743  1  0.98452000  0.85282000  0.95108000  1
  O  O744  1  0.96150000  0.61658000  0.59347000  1
  O  O745  1  0.96299000  0.54567000  0.64490000  1
  O  O746  1  0.99280000  0.79360000  0.58820000  1
  O  O747  1  0.98840000  0.90880000  0.70050000  1
  O  O748  1  0.86340000  0.82100000  0.69140000  1
  O  O749  1  0.09250000  0.78720000  0.69360000  1
  O  O750  1  0.05081000  0.92869000  0.96757000  1
  O  O751  1  0.50649000  0.59933000  0.11869000  1
  O  O752  1  0.48452000  0.64718000  0.04892000  1
  O  O753  1  0.46150000  0.88342000  0.40653000  1
  O  O754  1  0.46299000  0.95433000  0.35510000  1
  O  O755  1  0.49280000  0.70640000  0.41180000  1
  O  O756  1  0.48840000  0.59120000  0.29950000  1
  O  O757  1  0.36340000  0.67900000  0.30860000  1
  O  O758  1  0.59250000  0.71280000  0.30640000  1
  O  O759  1  0.55081000  0.57131000  0.03243000  1
  O  O760  1  0.38131000  0.00649000  0.59933000  1
  O  O761  1  0.45108000  0.98452000  0.64718000  1
  O  O762  1  0.09347000  0.96150000  0.88342000  1
  O  O763  1  0.14490000  0.96299000  0.95433000  1
  O  O764  1  0.08820000  0.99280000  0.70640000  1
  O  O765  1  0.20050000  0.98840000  0.59120000  1
  O  O766  1  0.19140000  0.86340000  0.67900000  1
  O  O767  1  0.19360000  0.09250000  0.71280000  1
  O  O768  1  0.46757000  0.05081000  0.57131000  1
  O  O769  1  0.44655000  0.94655000  0.55345000  1
  O  O770  1  0.11869000  0.99351000  0.09933000  1
  O  O771  1  0.04892000  0.01548000  0.14718000  1
  O  O772  1  0.40653000  0.03850000  0.38342000  1
  O  O773  1  0.35510000  0.03701000  0.45433000  1
  O  O774  1  0.41180000  0.00720000  0.20640000  1
  O  O775  1  0.29950000  0.01160000  0.09120000  1
  O  O776  1  0.30860000  0.13660000  0.17900000  1
  O  O777  1  0.30640000  0.90750000  0.21280000  1
  O  O778  1  0.03243000  0.94919000  0.07131000  1
  O  O779  1  0.05345000  0.05345000  0.05345000  1
  O  O780  1  0.88131000  0.49351000  0.40067000  1
  O  O781  1  0.95108000  0.51548000  0.35282000  1
  O  O782  1  0.59347000  0.53850000  0.11658000  1
  O  O783  1  0.64490000  0.53701000  0.04567000  1
  O  O784  1  0.58820000  0.50720000  0.29360000  1
  O  O785  1  0.70050000  0.51160000  0.40880000  1
  O  O786  1  0.69140000  0.63660000  0.32100000  1
  O  O787  1  0.69360000  0.40750000  0.28720000  1
  O  O788  1  0.96757000  0.44919000  0.42869000  1
  O  O789  1  0.94655000  0.55345000  0.44655000  1
  O  O790  1  0.61869000  0.50649000  0.90067000  1
  O  O791  1  0.54892000  0.48452000  0.85282000  1
  O  O792  1  0.90653000  0.46150000  0.61658000  1
  O  O793  1  0.85510000  0.46299000  0.54567000  1
  O  O794  1  0.91180000  0.49280000  0.79360000  1
  O  O795  1  0.79950000  0.48840000  0.90880000  1
  O  O796  1  0.80860000  0.36340000  0.82100000  1
  O  O797  1  0.80640000  0.59250000  0.78720000  1
  O  O798  1  0.53243000  0.55081000  0.92869000  1
  O  O799  1  0.55345000  0.44655000  0.94655000  1
  O  O800  1  0.59933000  0.38131000  0.00649000  1
  O  O801  1  0.64718000  0.45108000  0.98452000  1
  O  O802  1  0.88342000  0.09347000  0.96150000  1
  O  O803  1  0.95433000  0.14490000  0.96299000  1
  O  O804  1  0.70640000  0.08820000  0.99280000  1
  O  O805  1  0.59120000  0.20050000  0.98840000  1
  O  O806  1  0.67900000  0.19140000  0.86340000  1
  O  O807  1  0.71280000  0.19360000  0.09250000  1
  O  O808  1  0.57131000  0.46757000  0.05081000  1
  O  O809  1  0.90067000  0.61869000  0.50649000  1
  O  O810  1  0.85282000  0.54892000  0.48452000  1
  O  O811  1  0.61658000  0.90653000  0.46150000  1
  O  O812  1  0.54567000  0.85510000  0.46299000  1
  O  O813  1  0.79360000  0.91180000  0.49280000  1
  O  O814  1  0.90880000  0.79950000  0.48840000  1
  O  O815  1  0.82100000  0.80860000  0.36340000  1
  O  O816  1  0.78720000  0.80640000  0.59250000  1
  O  O817  1  0.92869000  0.53243000  0.55081000  1
  O  O818  1  0.09933000  0.11869000  0.99351000  1
  O  O819  1  0.14718000  0.04892000  0.01548000  1
  O  O820  1  0.38342000  0.40653000  0.03850000  1
  O  O821  1  0.45433000  0.35510000  0.03701000  1
  O  O822  1  0.20640000  0.41180000  0.00720000  1
  O  O823  1  0.09120000  0.29950000  0.01160000  1
  O  O824  1  0.17900000  0.30860000  0.13660000  1
  O  O825  1  0.21280000  0.30640000  0.90750000  1
  O  O826  1  0.07131000  0.03243000  0.94919000  1
  O  O827  1  0.40067000  0.88131000  0.49351000  1
  O  O828  1  0.35282000  0.95108000  0.51548000  1
  O  O829  1  0.11658000  0.59347000  0.53850000  1
  O  O830  1  0.04567000  0.64490000  0.53701000  1
  O  O831  1  0.29360000  0.58820000  0.50720000  1
  O  O832  1  0.40880000  0.70050000  0.51160000  1
  O  O833  1  0.32100000  0.69140000  0.63660000  1
  O  O834  1  0.28720000  0.69360000  0.40750000  1
  O  O835  1  0.42869000  0.96757000  0.44919000  1
  O  O836  1  0.00649000  0.59933000  0.38131000  1
  O  O837  1  0.98452000  0.64718000  0.45108000  1
  O  O838  1  0.96150000  0.88342000  0.09347000  1
  O  O839  1  0.96299000  0.95433000  0.14490000  1
  O  O840  1  0.99280000  0.70640000  0.08820000  1
  O  O841  1  0.98840000  0.59120000  0.20050000  1
  O  O842  1  0.86340000  0.67900000  0.19140000  1
  O  O843  1  0.09250000  0.71280000  0.19360000  1
  O  O844  1  0.05081000  0.57131000  0.46757000  1
  O  O845  1  0.50649000  0.90067000  0.61869000  1
  O  O846  1  0.48452000  0.85282000  0.54892000  1
  O  O847  1  0.46150000  0.61658000  0.90653000  1
  O  O848  1  0.46299000  0.54567000  0.85510000  1
  O  O849  1  0.49280000  0.79360000  0.91180000  1
  O  O850  1  0.48840000  0.90880000  0.79950000  1
  O  O851  1  0.36340000  0.82100000  0.80860000  1
  O  O852  1  0.59250000  0.78720000  0.80640000  1
  O  O853  1  0.55081000  0.92869000  0.53243000  1
  O  O854  1  0.99351000  0.09933000  0.11869000  1
  O  O855  1  0.01548000  0.14718000  0.04892000  1
  O  O856  1  0.03850000  0.38342000  0.40653000  1
  O  O857  1  0.03701000  0.45433000  0.35510000  1
  O  O858  1  0.00720000  0.20640000  0.41180000  1
  O  O859  1  0.01160000  0.09120000  0.29950000  1
  O  O860  1  0.13660000  0.17900000  0.30860000  1
  O  O861  1  0.90750000  0.21280000  0.30640000  1
  O  O862  1  0.94919000  0.07131000  0.03243000  1
  O  O863  1  0.49351000  0.40067000  0.88131000  1
  O  O864  1  0.51548000  0.35282000  0.95108000  1
  O  O865  1  0.53850000  0.11658000  0.59347000  1
  O  O866  1  0.53701000  0.04567000  0.64490000  1
  O  O867  1  0.50720000  0.29360000  0.58820000  1
  O  O868  1  0.51160000  0.40880000  0.70050000  1
  O  O869  1  0.63660000  0.32100000  0.69140000  1
  O  O870  1  0.40750000  0.28720000  0.69360000  1
  O  O871  1  0.44919000  0.42869000  0.96757000  1
