# generated using pymatgen
data_Zr6H69C83NO31
_symmetry_space_group_name_H-M   'P 1'
_cell_length_a   14.71000000
_cell_length_b   34.35100000
_cell_length_c   34.35100000
_cell_angle_alpha   90.00000000
_cell_angle_beta   90.00000000
_cell_angle_gamma   90.00000000
_symmetry_Int_Tables_number   1
_chemical_formula_structural   Zr6H69C83NO31
_chemical_formula_sum   'Zr24 H276 C332 N4 O124'
_cell_volume   17357.67056671
_cell_formula_units_Z   4
loop_
 _symmetry_equiv_pos_site_id
 _symmetry_equiv_pos_as_xyz
  1  'x, y, z'
loop_
 _atom_site_type_symbol
 _atom_site_label
 _atom_site_symmetry_multiplicity
 _atom_site_fract_x
 _atom_site_fract_y
 _atom_site_fract_z
 _atom_site_occupancy
  Zr  Zr0  1  0.11980000  0.27400000  0.72600000  1
  Zr  Zr1  1  0.88080000  0.20220000  0.79780000  1
  Zr  Zr2  1  0.11980000  0.72600000  0.27400000  1
  Zr  Zr3  1  0.88080000  0.79780000  0.20220000  1
  Zr  Zr4  1  0.61980000  0.77400000  0.77400000  1
  Zr  Zr5  1  0.38080000  0.70220000  0.70220000  1
  Zr  Zr6  1  0.61980000  0.22600000  0.22600000  1
  Zr  Zr7  1  0.38080000  0.29780000  0.29780000  1
  Zr  Zr8  1  0.38020000  0.22600000  0.22600000  1
  Zr  Zr9  1  0.61920000  0.29780000  0.29780000  1
  Zr  Zr10  1  0.38020000  0.77400000  0.77400000  1
  Zr  Zr11  1  0.61920000  0.70220000  0.70220000  1
  Zr  Zr12  1  0.88020000  0.72600000  0.27400000  1
  Zr  Zr13  1  0.11920000  0.79780000  0.20220000  1
  Zr  Zr14  1  0.88020000  0.27400000  0.72600000  1
  Zr  Zr15  1  0.11920000  0.20220000  0.79780000  1
  Zr  Zr16  1  0.00000000  0.18790000  0.71060000  1
  Zr  Zr17  1  0.00000000  0.81210000  0.28940000  1
  Zr  Zr18  1  0.50000000  0.78940000  0.68790000  1
  Zr  Zr19  1  0.50000000  0.21060000  0.31210000  1
  Zr  Zr20  1  0.50000000  0.31210000  0.21060000  1
  Zr  Zr21  1  0.50000000  0.68790000  0.78940000  1
  Zr  Zr22  1  0.00000000  0.71060000  0.18790000  1
  Zr  Zr23  1  0.00000000  0.28940000  0.81210000  1
  H  H24  1  0.17670000  0.20560000  0.72860000  1
  H  H25  1  0.26990000  0.26710000  0.61380000  1
  H  H26  1  0.30630000  0.27110000  0.54730000  1
  H  H27  1  0.09490000  0.17830000  0.59080000  1
  H  H28  1  0.06620000  0.15250000  0.52520000  1
  H  H29  1  0.07250000  0.18430000  0.49260000  1
  H  H30  1  0.15110000  0.15390000  0.49760000  1
  H  H31  1  0.16810000  0.27520000  0.47350000  1
  H  H32  1  0.22380000  0.28180000  0.40980000  1
  H  H33  1  0.39930000  0.19210000  0.42870000  1
  H  H34  1  0.43130000  0.16520000  0.48700000  1
  H  H35  1  0.42540000  0.19740000  0.51920000  1
  H  H36  1  0.35710000  0.16240000  0.51960000  1
  H  H37  1  0.17670000  0.79440000  0.27140000  1
  H  H38  1  0.26990000  0.73290000  0.38620000  1
  H  H39  1  0.30630000  0.72890000  0.45270000  1
  H  H40  1  0.09490000  0.82170000  0.40920000  1
  H  H41  1  0.06620000  0.84750000  0.47480000  1
  H  H42  1  0.07250000  0.81570000  0.50740000  1
  H  H43  1  0.15110000  0.84610000  0.50240000  1
  H  H44  1  0.16810000  0.72480000  0.52650000  1
  H  H45  1  0.22380000  0.71820000  0.59020000  1
  H  H46  1  0.39930000  0.80790000  0.57130000  1
  H  H47  1  0.43130000  0.83480000  0.51300000  1
  H  H48  1  0.42540000  0.80260000  0.48080000  1
  H  H49  1  0.35710000  0.83760000  0.48040000  1
  H  H50  1  0.67670000  0.77140000  0.70560000  1
  H  H51  1  0.76990000  0.88620000  0.76710000  1
  H  H52  1  0.80630000  0.95270000  0.77110000  1
  H  H53  1  0.59490000  0.90920000  0.67830000  1
  H  H54  1  0.56620000  0.97480000  0.65250000  1
  H  H55  1  0.57250000  0.00740000  0.68430000  1
  H  H56  1  0.65110000  0.00240000  0.65390000  1
  H  H57  1  0.66810000  0.02650000  0.77520000  1
  H  H58  1  0.72380000  0.09020000  0.78180000  1
  H  H59  1  0.89930000  0.07130000  0.69210000  1
  H  H60  1  0.93130000  0.01300000  0.66520000  1
  H  H61  1  0.92540000  0.98080000  0.69740000  1
  H  H62  1  0.85710000  0.98040000  0.66240000  1
  H  H63  1  0.67670000  0.22860000  0.29440000  1
  H  H64  1  0.76990000  0.11380000  0.23290000  1
  H  H65  1  0.80630000  0.04730000  0.22890000  1
  H  H66  1  0.59490000  0.09080000  0.32170000  1
  H  H67  1  0.56620000  0.02520000  0.34750000  1
  H  H68  1  0.57250000  0.99260000  0.31570000  1
  H  H69  1  0.65110000  0.99760000  0.34610000  1
  H  H70  1  0.66810000  0.97350000  0.22480000  1
  H  H71  1  0.72380000  0.90980000  0.21820000  1
  H  H72  1  0.89930000  0.92870000  0.30790000  1
  H  H73  1  0.93130000  0.98700000  0.33480000  1
  H  H74  1  0.92540000  0.01920000  0.30260000  1
  H  H75  1  0.85710000  0.01960000  0.33760000  1
  H  H76  1  0.32330000  0.29440000  0.22860000  1
  H  H77  1  0.23010000  0.23290000  0.11380000  1
  H  H78  1  0.19370000  0.22890000  0.04730000  1
  H  H79  1  0.40510000  0.32170000  0.09080000  1
  H  H80  1  0.43380000  0.34750000  0.02520000  1
  H  H81  1  0.42750000  0.31570000  0.99260000  1
  H  H82  1  0.34890000  0.34610000  0.99760000  1
  H  H83  1  0.33190000  0.22480000  0.97350000  1
  H  H84  1  0.27620000  0.21820000  0.90980000  1
  H  H85  1  0.10070000  0.30790000  0.92870000  1
  H  H86  1  0.06870000  0.33480000  0.98700000  1
  H  H87  1  0.07460000  0.30260000  0.01920000  1
  H  H88  1  0.14290000  0.33760000  0.01960000  1
  H  H89  1  0.32330000  0.70560000  0.77140000  1
  H  H90  1  0.23010000  0.76710000  0.88620000  1
  H  H91  1  0.19370000  0.77110000  0.95270000  1
  H  H92  1  0.40510000  0.67830000  0.90920000  1
  H  H93  1  0.43380000  0.65250000  0.97480000  1
  H  H94  1  0.42750000  0.68430000  0.00740000  1
  H  H95  1  0.34890000  0.65390000  0.00240000  1
  H  H96  1  0.33190000  0.77520000  0.02650000  1
  H  H97  1  0.27620000  0.78180000  0.09020000  1
  H  H98  1  0.10070000  0.69210000  0.07130000  1
  H  H99  1  0.06870000  0.66520000  0.01300000  1
  H  H100  1  0.07460000  0.69740000  0.98080000  1
  H  H101  1  0.14290000  0.66240000  0.98040000  1
  H  H102  1  0.82330000  0.72860000  0.20560000  1
  H  H103  1  0.73010000  0.61380000  0.26710000  1
  H  H104  1  0.69370000  0.54730000  0.27110000  1
  H  H105  1  0.90510000  0.59080000  0.17830000  1
  H  H106  1  0.93380000  0.52520000  0.15250000  1
  H  H107  1  0.92750000  0.49260000  0.18430000  1
  H  H108  1  0.84890000  0.49760000  0.15390000  1
  H  H109  1  0.83190000  0.47350000  0.27520000  1
  H  H110  1  0.77620000  0.40980000  0.28180000  1
  H  H111  1  0.60070000  0.42870000  0.19210000  1
  H  H112  1  0.56870000  0.48700000  0.16520000  1
  H  H113  1  0.57460000  0.51920000  0.19740000  1
  H  H114  1  0.64290000  0.51960000  0.16240000  1
  H  H115  1  0.82330000  0.27140000  0.79440000  1
  H  H116  1  0.73010000  0.38620000  0.73290000  1
  H  H117  1  0.69370000  0.45270000  0.72890000  1
  H  H118  1  0.90510000  0.40920000  0.82170000  1
  H  H119  1  0.93380000  0.47480000  0.84750000  1
  H  H120  1  0.92750000  0.50740000  0.81570000  1
  H  H121  1  0.84890000  0.50240000  0.84610000  1
  H  H122  1  0.83190000  0.52650000  0.72480000  1
  H  H123  1  0.77620000  0.59020000  0.71820000  1
  H  H124  1  0.60070000  0.57130000  0.80790000  1
  H  H125  1  0.56870000  0.51300000  0.83480000  1
  H  H126  1  0.57460000  0.48080000  0.80260000  1
  H  H127  1  0.64290000  0.48040000  0.83760000  1
  H  H128  1  0.82330000  0.79440000  0.27140000  1
  H  H129  1  0.73010000  0.73290000  0.38620000  1
  H  H130  1  0.69370000  0.72890000  0.45270000  1
  H  H131  1  0.90510000  0.82170000  0.40920000  1
  H  H132  1  0.93380000  0.84750000  0.47480000  1
  H  H133  1  0.92750000  0.81570000  0.50740000  1
  H  H134  1  0.84890000  0.84610000  0.50240000  1
  H  H135  1  0.83190000  0.72480000  0.52650000  1
  H  H136  1  0.77620000  0.71820000  0.59020000  1
  H  H137  1  0.60070000  0.80790000  0.57130000  1
  H  H138  1  0.56870000  0.83480000  0.51300000  1
  H  H139  1  0.57460000  0.80260000  0.48080000  1
  H  H140  1  0.64290000  0.83760000  0.48040000  1
  H  H141  1  0.82330000  0.20560000  0.72860000  1
  H  H142  1  0.73010000  0.26710000  0.61380000  1
  H  H143  1  0.69370000  0.27110000  0.54730000  1
  H  H144  1  0.90510000  0.17830000  0.59080000  1
  H  H145  1  0.93380000  0.15250000  0.52520000  1
  H  H146  1  0.92750000  0.18430000  0.49260000  1
  H  H147  1  0.84890000  0.15390000  0.49760000  1
  H  H148  1  0.83190000  0.27520000  0.47350000  1
  H  H149  1  0.77620000  0.28180000  0.40980000  1
  H  H150  1  0.60070000  0.19210000  0.42870000  1
  H  H151  1  0.56870000  0.16520000  0.48700000  1
  H  H152  1  0.57460000  0.19740000  0.51920000  1
  H  H153  1  0.64290000  0.16240000  0.51960000  1
  H  H154  1  0.32330000  0.22860000  0.29440000  1
  H  H155  1  0.23010000  0.11380000  0.23290000  1
  H  H156  1  0.19370000  0.04730000  0.22890000  1
  H  H157  1  0.40510000  0.09080000  0.32170000  1
  H  H158  1  0.43380000  0.02520000  0.34750000  1
  H  H159  1  0.42750000  0.99260000  0.31570000  1
  H  H160  1  0.34890000  0.99760000  0.34610000  1
  H  H161  1  0.33190000  0.97350000  0.22480000  1
  H  H162  1  0.27620000  0.90980000  0.21820000  1
  H  H163  1  0.10070000  0.92870000  0.30790000  1
  H  H164  1  0.06870000  0.98700000  0.33480000  1
  H  H165  1  0.07460000  0.01920000  0.30260000  1
  H  H166  1  0.14290000  0.01960000  0.33760000  1
  H  H167  1  0.32330000  0.77140000  0.70560000  1
  H  H168  1  0.23010000  0.88620000  0.76710000  1
  H  H169  1  0.19370000  0.95270000  0.77110000  1
  H  H170  1  0.40510000  0.90920000  0.67830000  1
  H  H171  1  0.43380000  0.97480000  0.65250000  1
  H  H172  1  0.42750000  0.00740000  0.68430000  1
  H  H173  1  0.34890000  0.00240000  0.65390000  1
  H  H174  1  0.33190000  0.02650000  0.77520000  1
  H  H175  1  0.27620000  0.09020000  0.78180000  1
  H  H176  1  0.10070000  0.07130000  0.69210000  1
  H  H177  1  0.06870000  0.01300000  0.66520000  1
  H  H178  1  0.07460000  0.98080000  0.69740000  1
  H  H179  1  0.14290000  0.98040000  0.66240000  1
  H  H180  1  0.67670000  0.70560000  0.77140000  1
  H  H181  1  0.76990000  0.76710000  0.88620000  1
  H  H182  1  0.80630000  0.77110000  0.95270000  1
  H  H183  1  0.59490000  0.67830000  0.90920000  1
  H  H184  1  0.56620000  0.65250000  0.97480000  1
  H  H185  1  0.57250000  0.68430000  0.00740000  1
  H  H186  1  0.65110000  0.65390000  0.00240000  1
  H  H187  1  0.66810000  0.77520000  0.02650000  1
  H  H188  1  0.72380000  0.78180000  0.09020000  1
  H  H189  1  0.89930000  0.69210000  0.07130000  1
  H  H190  1  0.93130000  0.66520000  0.01300000  1
  H  H191  1  0.92540000  0.69740000  0.98080000  1
  H  H192  1  0.85710000  0.66240000  0.98040000  1
  H  H193  1  0.67670000  0.29440000  0.22860000  1
  H  H194  1  0.76990000  0.23290000  0.11380000  1
  H  H195  1  0.80630000  0.22890000  0.04730000  1
  H  H196  1  0.59490000  0.32170000  0.09080000  1
  H  H197  1  0.56620000  0.34750000  0.02520000  1
  H  H198  1  0.57250000  0.31570000  0.99260000  1
  H  H199  1  0.65110000  0.34610000  0.99760000  1
  H  H200  1  0.66810000  0.22480000  0.97350000  1
  H  H201  1  0.72380000  0.21820000  0.90980000  1
  H  H202  1  0.89930000  0.30790000  0.92870000  1
  H  H203  1  0.93130000  0.33480000  0.98700000  1
  H  H204  1  0.92540000  0.30260000  0.01920000  1
  H  H205  1  0.85710000  0.33760000  0.01960000  1
  H  H206  1  0.17670000  0.27140000  0.79440000  1
  H  H207  1  0.26990000  0.38620000  0.73290000  1
  H  H208  1  0.30630000  0.45270000  0.72890000  1
  H  H209  1  0.09490000  0.40920000  0.82170000  1
  H  H210  1  0.06620000  0.47480000  0.84750000  1
  H  H211  1  0.07250000  0.50740000  0.81570000  1
  H  H212  1  0.15110000  0.50240000  0.84610000  1
  H  H213  1  0.16810000  0.52650000  0.72480000  1
  H  H214  1  0.22380000  0.59020000  0.71820000  1
  H  H215  1  0.39930000  0.57130000  0.80790000  1
  H  H216  1  0.43130000  0.51300000  0.83480000  1
  H  H217  1  0.42540000  0.48080000  0.80260000  1
  H  H218  1  0.35710000  0.48040000  0.83760000  1
  H  H219  1  0.17670000  0.72860000  0.20560000  1
  H  H220  1  0.26990000  0.61380000  0.26710000  1
  H  H221  1  0.30630000  0.54730000  0.27110000  1
  H  H222  1  0.09490000  0.59080000  0.17830000  1
  H  H223  1  0.06620000  0.52520000  0.15250000  1
  H  H224  1  0.07250000  0.49260000  0.18430000  1
  H  H225  1  0.15110000  0.49760000  0.15390000  1
  H  H226  1  0.16810000  0.47350000  0.27520000  1
  H  H227  1  0.22380000  0.40980000  0.28180000  1
  H  H228  1  0.39930000  0.42870000  0.19210000  1
  H  H229  1  0.43130000  0.48700000  0.16520000  1
  H  H230  1  0.42540000  0.51920000  0.19740000  1
  H  H231  1  0.35710000  0.51960000  0.16240000  1
  H  H232  1  0.41580000  0.19650000  0.80350000  1
  H  H233  1  0.35440000  0.28940000  0.71060000  1
  H  H234  1  0.44800000  0.30440000  0.69560000  1
  H  H235  1  0.86160000  0.11130000  0.88870000  1
  H  H236  1  0.86160000  0.06290000  0.93710000  1
  H  H237  1  0.70350000  0.01925000  0.98075000  1
  H  H238  1  0.41580000  0.80350000  0.19650000  1
  H  H239  1  0.86160000  0.88870000  0.11130000  1
  H  H240  1  0.86160000  0.93710000  0.06290000  1
  H  H241  1  0.91580000  0.69650000  0.69650000  1
  H  H242  1  0.85440000  0.78940000  0.78940000  1
  H  H243  1  0.94800000  0.80440000  0.80440000  1
  H  H244  1  0.36160000  0.61130000  0.61130000  1
  H  H245  1  0.36160000  0.56290000  0.56290000  1
  H  H246  1  0.20350000  0.51925000  0.51925000  1
  H  H247  1  0.91580000  0.30350000  0.30350000  1
  H  H248  1  0.36160000  0.38870000  0.38870000  1
  H  H249  1  0.36160000  0.43710000  0.43710000  1
  H  H250  1  0.08420000  0.30350000  0.30350000  1
  H  H251  1  0.14560000  0.21060000  0.21060000  1
  H  H252  1  0.05200000  0.19560000  0.19560000  1
  H  H253  1  0.63840000  0.38870000  0.38870000  1
  H  H254  1  0.63840000  0.43710000  0.43710000  1
  H  H255  1  0.79650000  0.48075000  0.48075000  1
  H  H256  1  0.08420000  0.69650000  0.69650000  1
  H  H257  1  0.63840000  0.61130000  0.61130000  1
  H  H258  1  0.63840000  0.56290000  0.56290000  1
  H  H259  1  0.58420000  0.80350000  0.19650000  1
  H  H260  1  0.64560000  0.71060000  0.28940000  1
  H  H261  1  0.55200000  0.69560000  0.30440000  1
  H  H262  1  0.13840000  0.88870000  0.11130000  1
  H  H263  1  0.13840000  0.93710000  0.06290000  1
  H  H264  1  0.29650000  0.98075000  0.01925000  1
  H  H265  1  0.58420000  0.19650000  0.80350000  1
  H  H266  1  0.13840000  0.11130000  0.88870000  1
  H  H267  1  0.13840000  0.06290000  0.93710000  1
  H  H268  1  1.00000000  0.32440000  0.73780000  1
  H  H269  1  0.00000000  0.15000000  0.77440000  1
  H  H270  1  0.00000000  0.67560000  0.26220000  1
  H  H271  1  1.00000000  0.85000000  0.22560000  1
  H  H272  1  0.50000000  0.76220000  0.82440000  1
  H  H273  1  0.50000000  0.72560000  0.65000000  1
  H  H274  1  0.50000000  0.23780000  0.17560000  1
  H  H275  1  0.50000000  0.27440000  0.35000000  1
  H  H276  1  0.50000000  0.17560000  0.23780000  1
  H  H277  1  0.50000000  0.35000000  0.27440000  1
  H  H278  1  0.50000000  0.82440000  0.76220000  1
  H  H279  1  0.50000000  0.65000000  0.72560000  1
  H  H280  1  1.00000000  0.73780000  0.32440000  1
  H  H281  1  1.00000000  0.77440000  0.15000000  1
  H  H282  1  0.00000000  0.26220000  0.67560000  1
  H  H283  1  1.00000000  0.22560000  0.85000000  1
  H  H284  1  0.76400000  0.98200000  0.98200000  1
  H  H285  1  0.76400000  0.01800000  0.01800000  1
  H  H286  1  0.26400000  0.48200000  0.51800000  1
  H  H287  1  0.26400000  0.51430000  0.48570000  1
  H  H288  1  0.73600000  0.48570000  0.51430000  1
  H  H289  1  0.73600000  0.51430000  0.48570000  1
  H  H290  1  0.23600000  0.01800000  0.01800000  1
  H  H291  1  0.23600000  0.98570000  0.98570000  1
  H  H292  1  0.35093000  0.47408000  0.47408000  1
  H  H293  1  0.64907000  0.52592000  0.52592000  1
  H  H294  1  0.15002000  0.02543000  0.97457000  1
  H  H295  1  0.84998000  0.97457000  0.02543000  1
  H  H296  1  0.57775000  0.28302000  0.71698000  1
  H  H297  1  0.42671000  0.71626000  0.28374000  1
  H  H298  1  0.92671000  0.21626000  0.21626000  1
  H  H299  1  0.07775000  0.78302000  0.78302000  1
  C  C300  1  0.14600000  0.22290000  0.64900000  1
  C  C301  1  0.17900000  0.22230000  0.60840000  1
  C  C302  1  0.24160000  0.24980000  0.59550000  1
  C  C303  1  0.26310000  0.25220000  0.55620000  1
  C  C304  1  0.22220000  0.22710000  0.52970000  1
  C  C305  1  0.15960000  0.19960000  0.54260000  1
  C  C306  1  0.13810000  0.19720000  0.58190000  1
  C  C307  1  0.10660000  0.16930000  0.51110000  1
  C  C308  1  0.25070000  0.22980000  0.48890000  1
  C  C309  1  0.21530000  0.25830000  0.46440000  1
  C  C310  1  0.24830000  0.26210000  0.42670000  1
  C  C311  1  0.31670000  0.23750000  0.41340000  1
  C  C312  1  0.35210000  0.20910000  0.43790000  1
  C  C313  1  0.31910000  0.20520000  0.47560000  1
  C  C314  1  0.39080000  0.17990000  0.50330000  1
  C  C315  1  0.35410000  0.24090000  0.37330000  1
  C  C316  1  0.14600000  0.77710000  0.35100000  1
  C  C317  1  0.17900000  0.77770000  0.39160000  1
  C  C318  1  0.24160000  0.75020000  0.40450000  1
  C  C319  1  0.26310000  0.74780000  0.44380000  1
  C  C320  1  0.22220000  0.77290000  0.47030000  1
  C  C321  1  0.15960000  0.80040000  0.45740000  1
  C  C322  1  0.13810000  0.80280000  0.41810000  1
  C  C323  1  0.10660000  0.83070000  0.48890000  1
  C  C324  1  0.25070000  0.77020000  0.51110000  1
  C  C325  1  0.21530000  0.74170000  0.53560000  1
  C  C326  1  0.24830000  0.73790000  0.57330000  1
  C  C327  1  0.31670000  0.76250000  0.58660000  1
  C  C328  1  0.35210000  0.79090000  0.56210000  1
  C  C329  1  0.31910000  0.79480000  0.52440000  1
  C  C330  1  0.39080000  0.82010000  0.49670000  1
  C  C331  1  0.35410000  0.75910000  0.62670000  1
  C  C332  1  0.64600000  0.85100000  0.72290000  1
  C  C333  1  0.67900000  0.89160000  0.72230000  1
  C  C334  1  0.74160000  0.90450000  0.74980000  1
  C  C335  1  0.76310000  0.94380000  0.75220000  1
  C  C336  1  0.72220000  0.97030000  0.72710000  1
  C  C337  1  0.65960000  0.95740000  0.69960000  1
  C  C338  1  0.63810000  0.91810000  0.69720000  1
  C  C339  1  0.60660000  0.98890000  0.66930000  1
  C  C340  1  0.75070000  0.01110000  0.72980000  1
  C  C341  1  0.71530000  0.03560000  0.75830000  1
  C  C342  1  0.74830000  0.07330000  0.76210000  1
  C  C343  1  0.81670000  0.08660000  0.73750000  1
  C  C344  1  0.85210000  0.06210000  0.70910000  1
  C  C345  1  0.81910000  0.02440000  0.70520000  1
  C  C346  1  0.89080000  0.99670000  0.67990000  1
  C  C347  1  0.85410000  0.12670000  0.74090000  1
  C  C348  1  0.64600000  0.14900000  0.27710000  1
  C  C349  1  0.67900000  0.10840000  0.27770000  1
  C  C350  1  0.74160000  0.09550000  0.25020000  1
  C  C351  1  0.76310000  0.05620000  0.24780000  1
  C  C352  1  0.72220000  0.02970000  0.27290000  1
  C  C353  1  0.65960000  0.04260000  0.30040000  1
  C  C354  1  0.63810000  0.08190000  0.30280000  1
  C  C355  1  0.60660000  0.01110000  0.33070000  1
  C  C356  1  0.75070000  0.98890000  0.27020000  1
  C  C357  1  0.71530000  0.96440000  0.24170000  1
  C  C358  1  0.74830000  0.92670000  0.23790000  1
  C  C359  1  0.81670000  0.91340000  0.26250000  1
  C  C360  1  0.85210000  0.93790000  0.29090000  1
  C  C361  1  0.81910000  0.97560000  0.29480000  1
  C  C362  1  0.89080000  0.00330000  0.32010000  1
  C  C363  1  0.85410000  0.87330000  0.25910000  1
  C  C364  1  0.35400000  0.27710000  0.14900000  1
  C  C365  1  0.32100000  0.27770000  0.10840000  1
  C  C366  1  0.25840000  0.25020000  0.09550000  1
  C  C367  1  0.23690000  0.24780000  0.05620000  1
  C  C368  1  0.27780000  0.27290000  0.02970000  1
  C  C369  1  0.34040000  0.30040000  0.04260000  1
  C  C370  1  0.36190000  0.30280000  0.08190000  1
  C  C371  1  0.39340000  0.33070000  0.01110000  1
  C  C372  1  0.24930000  0.27020000  0.98890000  1
  C  C373  1  0.28470000  0.24170000  0.96440000  1
  C  C374  1  0.25170000  0.23790000  0.92670000  1
  C  C375  1  0.18330000  0.26250000  0.91340000  1
  C  C376  1  0.14790000  0.29090000  0.93790000  1
  C  C377  1  0.18090000  0.29480000  0.97560000  1
  C  C378  1  0.10920000  0.32010000  0.00330000  1
  C  C379  1  0.14590000  0.25910000  0.87330000  1
  C  C380  1  0.35400000  0.72290000  0.85100000  1
  C  C381  1  0.32100000  0.72230000  0.89160000  1
  C  C382  1  0.25840000  0.74980000  0.90450000  1
  C  C383  1  0.23690000  0.75220000  0.94380000  1
  C  C384  1  0.27780000  0.72710000  0.97030000  1
  C  C385  1  0.34040000  0.69960000  0.95740000  1
  C  C386  1  0.36190000  0.69720000  0.91810000  1
  C  C387  1  0.39340000  0.66930000  0.98890000  1
  C  C388  1  0.24930000  0.72980000  0.01110000  1
  C  C389  1  0.28470000  0.75830000  0.03560000  1
  C  C390  1  0.25170000  0.76210000  0.07330000  1
  C  C391  1  0.18330000  0.73750000  0.08660000  1
  C  C392  1  0.14790000  0.70910000  0.06210000  1
  C  C393  1  0.18090000  0.70520000  0.02440000  1
  C  C394  1  0.10920000  0.67990000  0.99670000  1
  C  C395  1  0.14590000  0.74090000  0.12670000  1
  C  C396  1  0.85400000  0.64900000  0.22290000  1
  C  C397  1  0.82100000  0.60840000  0.22230000  1
  C  C398  1  0.75840000  0.59550000  0.24980000  1
  C  C399  1  0.73690000  0.55620000  0.25220000  1
  C  C400  1  0.77780000  0.52970000  0.22710000  1
  C  C401  1  0.84040000  0.54260000  0.19960000  1
  C  C402  1  0.86190000  0.58190000  0.19720000  1
  C  C403  1  0.89340000  0.51110000  0.16930000  1
  C  C404  1  0.74930000  0.48890000  0.22980000  1
  C  C405  1  0.78470000  0.46440000  0.25830000  1
  C  C406  1  0.75170000  0.42670000  0.26210000  1
  C  C407  1  0.68330000  0.41340000  0.23750000  1
  C  C408  1  0.64790000  0.43790000  0.20910000  1
  C  C409  1  0.68090000  0.47560000  0.20520000  1
  C  C410  1  0.60920000  0.50330000  0.17990000  1
  C  C411  1  0.64590000  0.37330000  0.24090000  1
  C  C412  1  0.85400000  0.35100000  0.77710000  1
  C  C413  1  0.82100000  0.39160000  0.77770000  1
  C  C414  1  0.75840000  0.40450000  0.75020000  1
  C  C415  1  0.73690000  0.44380000  0.74780000  1
  C  C416  1  0.77780000  0.47030000  0.77290000  1
  C  C417  1  0.84040000  0.45740000  0.80040000  1
  C  C418  1  0.86190000  0.41810000  0.80280000  1
  C  C419  1  0.89340000  0.48890000  0.83070000  1
  C  C420  1  0.74930000  0.51110000  0.77020000  1
  C  C421  1  0.78470000  0.53560000  0.74170000  1
  C  C422  1  0.75170000  0.57330000  0.73790000  1
  C  C423  1  0.68330000  0.58660000  0.76250000  1
  C  C424  1  0.64790000  0.56210000  0.79090000  1
  C  C425  1  0.68090000  0.52440000  0.79480000  1
  C  C426  1  0.60920000  0.49670000  0.82010000  1
  C  C427  1  0.64590000  0.62670000  0.75910000  1
  C  C428  1  0.85400000  0.77710000  0.35100000  1
  C  C429  1  0.82100000  0.77770000  0.39160000  1
  C  C430  1  0.75840000  0.75020000  0.40450000  1
  C  C431  1  0.73690000  0.74780000  0.44380000  1
  C  C432  1  0.77780000  0.77290000  0.47030000  1
  C  C433  1  0.84040000  0.80040000  0.45740000  1
  C  C434  1  0.86190000  0.80280000  0.41810000  1
  C  C435  1  0.89340000  0.83070000  0.48890000  1
  C  C436  1  0.74930000  0.77020000  0.51110000  1
  C  C437  1  0.78470000  0.74170000  0.53560000  1
  C  C438  1  0.75170000  0.73790000  0.57330000  1
  C  C439  1  0.68330000  0.76250000  0.58660000  1
  C  C440  1  0.64790000  0.79090000  0.56210000  1
  C  C441  1  0.68090000  0.79480000  0.52440000  1
  C  C442  1  0.60920000  0.82010000  0.49670000  1
  C  C443  1  0.64590000  0.75910000  0.62670000  1
  C  C444  1  0.85400000  0.22290000  0.64900000  1
  C  C445  1  0.82100000  0.22230000  0.60840000  1
  C  C446  1  0.75840000  0.24980000  0.59550000  1
  C  C447  1  0.73690000  0.25220000  0.55620000  1
  C  C448  1  0.77780000  0.22710000  0.52970000  1
  C  C449  1  0.84040000  0.19960000  0.54260000  1
  C  C450  1  0.86190000  0.19720000  0.58190000  1
  C  C451  1  0.89340000  0.16930000  0.51110000  1
  C  C452  1  0.74930000  0.22980000  0.48890000  1
  C  C453  1  0.78470000  0.25830000  0.46440000  1
  C  C454  1  0.75170000  0.26210000  0.42670000  1
  C  C455  1  0.68330000  0.23750000  0.41340000  1
  C  C456  1  0.64790000  0.20910000  0.43790000  1
  C  C457  1  0.68090000  0.20520000  0.47560000  1
  C  C458  1  0.60920000  0.17990000  0.50330000  1
  C  C459  1  0.64590000  0.24090000  0.37330000  1
  C  C460  1  0.35400000  0.14900000  0.27710000  1
  C  C461  1  0.32100000  0.10840000  0.27770000  1
  C  C462  1  0.25840000  0.09550000  0.25020000  1
  C  C463  1  0.23690000  0.05620000  0.24780000  1
  C  C464  1  0.27780000  0.02970000  0.27290000  1
  C  C465  1  0.34040000  0.04260000  0.30040000  1
  C  C466  1  0.36190000  0.08190000  0.30280000  1
  C  C467  1  0.39340000  0.01110000  0.33070000  1
  C  C468  1  0.24930000  0.98890000  0.27020000  1
  C  C469  1  0.28470000  0.96440000  0.24170000  1
  C  C470  1  0.25170000  0.92670000  0.23790000  1
  C  C471  1  0.18330000  0.91340000  0.26250000  1
  C  C472  1  0.14790000  0.93790000  0.29090000  1
  C  C473  1  0.18090000  0.97560000  0.29480000  1
  C  C474  1  0.10920000  0.00330000  0.32010000  1
  C  C475  1  0.14590000  0.87330000  0.25910000  1
  C  C476  1  0.35400000  0.85100000  0.72290000  1
  C  C477  1  0.32100000  0.89160000  0.72230000  1
  C  C478  1  0.25840000  0.90450000  0.74980000  1
  C  C479  1  0.23690000  0.94380000  0.75220000  1
  C  C480  1  0.27780000  0.97030000  0.72710000  1
  C  C481  1  0.34040000  0.95740000  0.69960000  1
  C  C482  1  0.36190000  0.91810000  0.69720000  1
  C  C483  1  0.39340000  0.98890000  0.66930000  1
  C  C484  1  0.24930000  0.01110000  0.72980000  1
  C  C485  1  0.28470000  0.03560000  0.75830000  1
  C  C486  1  0.25170000  0.07330000  0.76210000  1
  C  C487  1  0.18330000  0.08660000  0.73750000  1
  C  C488  1  0.14790000  0.06210000  0.70910000  1
  C  C489  1  0.18090000  0.02440000  0.70520000  1
  C  C490  1  0.10920000  0.99670000  0.67990000  1
  C  C491  1  0.14590000  0.12670000  0.74090000  1
  C  C492  1  0.64600000  0.72290000  0.85100000  1
  C  C493  1  0.67900000  0.72230000  0.89160000  1
  C  C494  1  0.74160000  0.74980000  0.90450000  1
  C  C495  1  0.76310000  0.75220000  0.94380000  1
  C  C496  1  0.72220000  0.72710000  0.97030000  1
  C  C497  1  0.65960000  0.69960000  0.95740000  1
  C  C498  1  0.63810000  0.69720000  0.91810000  1
  C  C499  1  0.60660000  0.66930000  0.98890000  1
  C  C500  1  0.75070000  0.72980000  0.01110000  1
  C  C501  1  0.71530000  0.75830000  0.03560000  1
  C  C502  1  0.74830000  0.76210000  0.07330000  1
  C  C503  1  0.81670000  0.73750000  0.08660000  1
  C  C504  1  0.85210000  0.70910000  0.06210000  1
  C  C505  1  0.81910000  0.70520000  0.02440000  1
  C  C506  1  0.89080000  0.67990000  0.99670000  1
  C  C507  1  0.85410000  0.74090000  0.12670000  1
  C  C508  1  0.64600000  0.27710000  0.14900000  1
  C  C509  1  0.67900000  0.27770000  0.10840000  1
  C  C510  1  0.74160000  0.25020000  0.09550000  1
  C  C511  1  0.76310000  0.24780000  0.05620000  1
  C  C512  1  0.72220000  0.27290000  0.02970000  1
  C  C513  1  0.65960000  0.30040000  0.04260000  1
  C  C514  1  0.63810000  0.30280000  0.08190000  1
  C  C515  1  0.60660000  0.33070000  0.01110000  1
  C  C516  1  0.75070000  0.27020000  0.98890000  1
  C  C517  1  0.71530000  0.24170000  0.96440000  1
  C  C518  1  0.74830000  0.23790000  0.92670000  1
  C  C519  1  0.81670000  0.26250000  0.91340000  1
  C  C520  1  0.85210000  0.29090000  0.93790000  1
  C  C521  1  0.81910000  0.29480000  0.97560000  1
  C  C522  1  0.89080000  0.32010000  0.00330000  1
  C  C523  1  0.85410000  0.25910000  0.87330000  1
  C  C524  1  0.14600000  0.35100000  0.77710000  1
  C  C525  1  0.17900000  0.39160000  0.77770000  1
  C  C526  1  0.24160000  0.40450000  0.75020000  1
  C  C527  1  0.26310000  0.44380000  0.74780000  1
  C  C528  1  0.22220000  0.47030000  0.77290000  1
  C  C529  1  0.15960000  0.45740000  0.80040000  1
  C  C530  1  0.13810000  0.41810000  0.80280000  1
  C  C531  1  0.10660000  0.48890000  0.83070000  1
  C  C532  1  0.25070000  0.51110000  0.77020000  1
  C  C533  1  0.21530000  0.53560000  0.74170000  1
  C  C534  1  0.24830000  0.57330000  0.73790000  1
  C  C535  1  0.31670000  0.58660000  0.76250000  1
  C  C536  1  0.35210000  0.56210000  0.79090000  1
  C  C537  1  0.31910000  0.52440000  0.79480000  1
  C  C538  1  0.39080000  0.49670000  0.82010000  1
  C  C539  1  0.35410000  0.62670000  0.75910000  1
  C  C540  1  0.14600000  0.64900000  0.22290000  1
  C  C541  1  0.17900000  0.60840000  0.22230000  1
  C  C542  1  0.24160000  0.59550000  0.24980000  1
  C  C543  1  0.26310000  0.55620000  0.25220000  1
  C  C544  1  0.22220000  0.52970000  0.22710000  1
  C  C545  1  0.15960000  0.54260000  0.19960000  1
  C  C546  1  0.13810000  0.58190000  0.19720000  1
  C  C547  1  0.10660000  0.51110000  0.16930000  1
  C  C548  1  0.25070000  0.48890000  0.22980000  1
  C  C549  1  0.21530000  0.46440000  0.25830000  1
  C  C550  1  0.24830000  0.42670000  0.26210000  1
  C  C551  1  0.31670000  0.41340000  0.23750000  1
  C  C552  1  0.35210000  0.43790000  0.20910000  1
  C  C553  1  0.31910000  0.47560000  0.20520000  1
  C  C554  1  0.39080000  0.50330000  0.17990000  1
  C  C555  1  0.35410000  0.37330000  0.24090000  1
  C  C556  1  0.30600000  0.23860000  0.76140000  1
  C  C557  1  0.46100000  0.26270000  0.73730000  1
  C  C558  1  0.40850000  0.23890000  0.76110000  1
  C  C559  1  0.45030000  0.21320000  0.78680000  1
  C  C560  1  0.91810000  0.10140000  0.89860000  1
  C  C561  1  0.91810000  0.07280000  0.92720000  1
  C  C562  1  0.91710000  0.01370000  0.98630000  1
  C  C563  1  0.76020000  0.00950000  0.99050000  1
  C  C564  1  0.30600000  0.76140000  0.23860000  1
  C  C565  1  0.46100000  0.73730000  0.26270000  1
  C  C566  1  0.40850000  0.76110000  0.23890000  1
  C  C567  1  0.45030000  0.78680000  0.21320000  1
  C  C568  1  0.91810000  0.89860000  0.10140000  1
  C  C569  1  0.91810000  0.92720000  0.07280000  1
  C  C570  1  0.91710000  0.98630000  0.01370000  1
  C  C571  1  0.80600000  0.73860000  0.73860000  1
  C  C572  1  0.96100000  0.76270000  0.76270000  1
  C  C573  1  0.90850000  0.73890000  0.73890000  1
  C  C574  1  0.95030000  0.71320000  0.71320000  1
  C  C575  1  0.41810000  0.60140000  0.60140000  1
  C  C576  1  0.41810000  0.57280000  0.57280000  1
  C  C577  1  0.41710000  0.51370000  0.51370000  1
  C  C578  1  0.26020000  0.50950000  0.50950000  1
  C  C579  1  0.80600000  0.26140000  0.26140000  1
  C  C580  1  0.96100000  0.23730000  0.23730000  1
  C  C581  1  0.90850000  0.26110000  0.26110000  1
  C  C582  1  0.95030000  0.28680000  0.28680000  1
  C  C583  1  0.41810000  0.39860000  0.39860000  1
  C  C584  1  0.41810000  0.42720000  0.42720000  1
  C  C585  1  0.41710000  0.48630000  0.48630000  1
  C  C586  1  0.19400000  0.26140000  0.26140000  1
  C  C587  1  0.03900000  0.23730000  0.23730000  1
  C  C588  1  0.09150000  0.26110000  0.26110000  1
  C  C589  1  0.04970000  0.28680000  0.28680000  1
  C  C590  1  0.58190000  0.39860000  0.39860000  1
  C  C591  1  0.58190000  0.42720000  0.42720000  1
  C  C592  1  0.58290000  0.48630000  0.48630000  1
  C  C593  1  0.73980000  0.49050000  0.49050000  1
  C  C594  1  0.19400000  0.73860000  0.73860000  1
  C  C595  1  0.03900000  0.76270000  0.76270000  1
  C  C596  1  0.09150000  0.73890000  0.73890000  1
  C  C597  1  0.04970000  0.71320000  0.71320000  1
  C  C598  1  0.58190000  0.60140000  0.60140000  1
  C  C599  1  0.58190000  0.57280000  0.57280000  1
  C  C600  1  0.58290000  0.51370000  0.51370000  1
  C  C601  1  0.69400000  0.76140000  0.23860000  1
  C  C602  1  0.53900000  0.73730000  0.26270000  1
  C  C603  1  0.59150000  0.76110000  0.23890000  1
  C  C604  1  0.54970000  0.78680000  0.21320000  1
  C  C605  1  0.08190000  0.89860000  0.10140000  1
  C  C606  1  0.08190000  0.92720000  0.07280000  1
  C  C607  1  0.08290000  0.98630000  0.01370000  1
  C  C608  1  0.23980000  0.99050000  0.00950000  1
  C  C609  1  0.69400000  0.23860000  0.76140000  1
  C  C610  1  0.53900000  0.26270000  0.73730000  1
  C  C611  1  0.59150000  0.23890000  0.76110000  1
  C  C612  1  0.54970000  0.21320000  0.78680000  1
  C  C613  1  0.08190000  0.10140000  0.89860000  1
  C  C614  1  0.08190000  0.07280000  0.92720000  1
  C  C615  1  0.08290000  0.01370000  0.98630000  1
  C  C616  1  0.00000000  0.14670000  0.85330000  1
  C  C617  1  0.00000000  0.11570000  0.88430000  1
  C  C618  1  0.00000000  0.05845000  0.94155000  1
  C  C619  1  0.00000000  0.02740000  0.97260000  1
  C  C620  1  0.00000000  0.85330000  0.14670000  1
  C  C621  1  0.00000000  0.88430000  0.11570000  1
  C  C622  1  0.00000000  0.94155000  0.05845000  1
  C  C623  1  0.00000000  0.97260000  0.02740000  1
  C  C624  1  0.50000000  0.64670000  0.64670000  1
  C  C625  1  0.50000000  0.61570000  0.61570000  1
  C  C626  1  0.50000000  0.55845000  0.55845000  1
  C  C627  1  0.50000000  0.52740000  0.52740000  1
  C  C628  1  0.50000000  0.35330000  0.35330000  1
  C  C629  1  0.50000000  0.38430000  0.38430000  1
  C  C630  1  0.50000000  0.44155000  0.44155000  1
  C  C631  1  0.50000000  0.47260000  0.47260000  1
  N  N632  1  0.41550000  0.28870000  0.71130000  1
  N  N633  1  0.91550000  0.78870000  0.78870000  1
  N  N634  1  0.08450000  0.21130000  0.21130000  1
  N  N635  1  0.58450000  0.71130000  0.28870000  1
  O  O636  1  0.17300000  0.24960000  0.67000000  1
  O  O637  1  0.09030000  0.19450000  0.65940000  1
  O  O638  1  0.41080000  0.21280000  0.36250000  1
  O  O639  1  0.11570000  0.21360000  0.73640000  1
  O  O640  1  0.32810000  0.27430000  0.35310000  1
  O  O641  1  0.17300000  0.75040000  0.33000000  1
  O  O642  1  0.09030000  0.80550000  0.34060000  1
  O  O643  1  0.41080000  0.78720000  0.63750000  1
  O  O644  1  0.11570000  0.78640000  0.26360000  1
  O  O645  1  0.32810000  0.72570000  0.64690000  1
  O  O646  1  0.67300000  0.83000000  0.74960000  1
  O  O647  1  0.59030000  0.84060000  0.69450000  1
  O  O648  1  0.91080000  0.13750000  0.71280000  1
  O  O649  1  0.61570000  0.76360000  0.71360000  1
  O  O650  1  0.82810000  0.14690000  0.77430000  1
  O  O651  1  0.67300000  0.17000000  0.25040000  1
  O  O652  1  0.59030000  0.15940000  0.30550000  1
  O  O653  1  0.91080000  0.86250000  0.28720000  1
  O  O654  1  0.61570000  0.23640000  0.28640000  1
  O  O655  1  0.82810000  0.85310000  0.22570000  1
  O  O656  1  0.32700000  0.25040000  0.17000000  1
  O  O657  1  0.40970000  0.30550000  0.15940000  1
  O  O658  1  0.08920000  0.28720000  0.86250000  1
  O  O659  1  0.38430000  0.28640000  0.23640000  1
  O  O660  1  0.17190000  0.22570000  0.85310000  1
  O  O661  1  0.32700000  0.74960000  0.83000000  1
  O  O662  1  0.40970000  0.69450000  0.84060000  1
  O  O663  1  0.08920000  0.71280000  0.13750000  1
  O  O664  1  0.38430000  0.71360000  0.76360000  1
  O  O665  1  0.17190000  0.77430000  0.14690000  1
  O  O666  1  0.82700000  0.67000000  0.24960000  1
  O  O667  1  0.90970000  0.65940000  0.19450000  1
  O  O668  1  0.58920000  0.36250000  0.21280000  1
  O  O669  1  0.88430000  0.73640000  0.21360000  1
  O  O670  1  0.67190000  0.35310000  0.27430000  1
  O  O671  1  0.82700000  0.33000000  0.75040000  1
  O  O672  1  0.90970000  0.34060000  0.80550000  1
  O  O673  1  0.58920000  0.63750000  0.78720000  1
  O  O674  1  0.88430000  0.26360000  0.78640000  1
  O  O675  1  0.67190000  0.64690000  0.72570000  1
  O  O676  1  0.82700000  0.75040000  0.33000000  1
  O  O677  1  0.90970000  0.80550000  0.34060000  1
  O  O678  1  0.58920000  0.78720000  0.63750000  1
  O  O679  1  0.88430000  0.78640000  0.26360000  1
  O  O680  1  0.67190000  0.72570000  0.64690000  1
  O  O681  1  0.82700000  0.24960000  0.67000000  1
  O  O682  1  0.90970000  0.19450000  0.65940000  1
  O  O683  1  0.58920000  0.21280000  0.36250000  1
  O  O684  1  0.88430000  0.21360000  0.73640000  1
  O  O685  1  0.67190000  0.27430000  0.35310000  1
  O  O686  1  0.32700000  0.17000000  0.25040000  1
  O  O687  1  0.40970000  0.15940000  0.30550000  1
  O  O688  1  0.08920000  0.86250000  0.28720000  1
  O  O689  1  0.38430000  0.23640000  0.28640000  1
  O  O690  1  0.17190000  0.85310000  0.22570000  1
  O  O691  1  0.32700000  0.83000000  0.74960000  1
  O  O692  1  0.40970000  0.84060000  0.69450000  1
  O  O693  1  0.08920000  0.13750000  0.71280000  1
  O  O694  1  0.38430000  0.76360000  0.71360000  1
  O  O695  1  0.17190000  0.14690000  0.77430000  1
  O  O696  1  0.67300000  0.74960000  0.83000000  1
  O  O697  1  0.59030000  0.69450000  0.84060000  1
  O  O698  1  0.91080000  0.71280000  0.13750000  1
  O  O699  1  0.61570000  0.71360000  0.76360000  1
  O  O700  1  0.82810000  0.77430000  0.14690000  1
  O  O701  1  0.67300000  0.25040000  0.17000000  1
  O  O702  1  0.59030000  0.30550000  0.15940000  1
  O  O703  1  0.91080000  0.28720000  0.86250000  1
  O  O704  1  0.61570000  0.28640000  0.23640000  1
  O  O705  1  0.82810000  0.22570000  0.85310000  1
  O  O706  1  0.17300000  0.33000000  0.75040000  1
  O  O707  1  0.09030000  0.34060000  0.80550000  1
  O  O708  1  0.41080000  0.63750000  0.78720000  1
  O  O709  1  0.11570000  0.26360000  0.78640000  1
  O  O710  1  0.32810000  0.64690000  0.72570000  1
  O  O711  1  0.17300000  0.67000000  0.24960000  1
  O  O712  1  0.09030000  0.65940000  0.19450000  1
  O  O713  1  0.41080000  0.36250000  0.21280000  1
  O  O714  1  0.11570000  0.73640000  0.21360000  1
  O  O715  1  0.32810000  0.35310000  0.27430000  1
  O  O716  1  0.91900000  0.15640000  0.84360000  1
  O  O717  1  0.26490000  0.21420000  0.78580000  1
  O  O718  1  0.26330000  0.26280000  0.73720000  1
  O  O719  1  0.83370000  0.02880000  0.97120000  1
  O  O720  1  0.91900000  0.84360000  0.15640000  1
  O  O721  1  0.26490000  0.78580000  0.21420000  1
  O  O722  1  0.26330000  0.73720000  0.26280000  1
  O  O723  1  0.41900000  0.65640000  0.65640000  1
  O  O724  1  0.76490000  0.71420000  0.71420000  1
  O  O725  1  0.76330000  0.76280000  0.76280000  1
  O  O726  1  0.33370000  0.52880000  0.52880000  1
  O  O727  1  0.41900000  0.34360000  0.34360000  1
  O  O728  1  0.76490000  0.28580000  0.28580000  1
  O  O729  1  0.76330000  0.23720000  0.23720000  1
  O  O730  1  0.58100000  0.34360000  0.34360000  1
  O  O731  1  0.23510000  0.28580000  0.28580000  1
  O  O732  1  0.23670000  0.23720000  0.23720000  1
  O  O733  1  0.66630000  0.47120000  0.47120000  1
  O  O734  1  0.58100000  0.65640000  0.65640000  1
  O  O735  1  0.23510000  0.71420000  0.71420000  1
  O  O736  1  0.23670000  0.76280000  0.76280000  1
  O  O737  1  0.08100000  0.84360000  0.15640000  1
  O  O738  1  0.73510000  0.78580000  0.21420000  1
  O  O739  1  0.73670000  0.73720000  0.26280000  1
  O  O740  1  0.16630000  0.97120000  0.02880000  1
  O  O741  1  0.08100000  0.15640000  0.84360000  1
  O  O742  1  0.73510000  0.21420000  0.78580000  1
  O  O743  1  0.73670000  0.26280000  0.73720000  1
  O  O744  1  1.00000000  0.29840000  0.74940000  1
  O  O745  1  0.00000000  0.17760000  0.77100000  1
  O  O746  1  0.00000000  0.70160000  0.25060000  1
  O  O747  1  1.00000000  0.82240000  0.22900000  1
  O  O748  1  0.50000000  0.75060000  0.79840000  1
  O  O749  1  0.50000000  0.72900000  0.67760000  1
  O  O750  1  0.50000000  0.24940000  0.20160000  1
  O  O751  1  0.50000000  0.27100000  0.32240000  1
  O  O752  1  0.50000000  0.20160000  0.24940000  1
  O  O753  1  0.50000000  0.32240000  0.27100000  1
  O  O754  1  0.50000000  0.79840000  0.75060000  1
  O  O755  1  0.50000000  0.67760000  0.72900000  1
  O  O756  1  1.00000000  0.74940000  0.29840000  1
  O  O757  1  0.00000000  0.77100000  0.17760000  1
  O  O758  1  0.00000000  0.25060000  0.70160000  1
  O  O759  1  1.00000000  0.22900000  0.82240000  1
