# generated using pymatgen
data_Zr3H24C30O19
_symmetry_space_group_name_H-M   'P 1'
_cell_length_a   30.06294606
_cell_length_b   30.06294606
_cell_length_c   30.06294606
_cell_angle_alpha   109.47122063
_cell_angle_beta   109.47122063
_cell_angle_gamma   109.47122063
_symmetry_Int_Tables_number   1
_chemical_formula_structural   Zr3H24C30O19
_chemical_formula_sum   'Zr48 H384 C480 O304'
_cell_volume   20915.71532005
_cell_formula_units_Z   16
loop_
 _symmetry_equiv_pos_site_id
 _symmetry_equiv_pos_as_xyz
  1  'x, y, z'
loop_
 _atom_site_type_symbol
 _atom_site_label
 _atom_site_symmetry_multiplicity
 _atom_site_fract_x
 _atom_site_fract_y
 _atom_site_fract_z
 _atom_site_occupancy
  C  C0  1  0.39380000  0.66070000  0.68030000  1
  C  C1  1  0.10610000  0.43740000  0.56550000  1
  C  C2  1  0.16576000  0.56366000  0.51968000  1
  C  C3  1  0.30482000  0.64633000  0.59811000  1
  C  C4  1  0.31532000  0.67112000  0.65140000  1
  C  C5  1  0.34076000  0.63276000  0.58480000  1
  C  C6  1  0.38430000  0.63880000  0.62690000  1
  C  C7  1  0.21880000  0.58261000  0.51881000  1
  C  C8  1  0.28076000  0.69404000  0.66468000  1
  C  C9  1  0.36060000  0.67720000  0.69160000  1
  C  C10  1  0.10620000  0.28650000  0.76690000  1
  C  C11  1  0.39390000  0.45940000  0.83130000  1
  C  C12  1  0.33424000  0.35392000  0.89790000  1
  C  C13  1  0.19518000  0.29329000  0.84151000  1
  C  C14  1  0.18468000  0.33608000  0.85580000  1
  C  C15  1  0.15924000  0.24404000  0.79200000  1
  C  C16  1  0.11570000  0.24260000  0.75450000  1
  C  C17  1  0.28120000  0.30001000  0.86381000  1
  C  C18  1  0.21924000  0.38392000  0.91328000  1
  C  C19  1  0.13940000  0.33100000  0.81660000  1
  C  C20  1  0.51960000  0.83930000  0.73310000  1
  C  C21  1  0.62810000  0.06260000  0.66870000  1
  C  C22  1  0.45602000  0.93634000  0.60210000  1
  C  C23  1  0.45178000  0.85367000  0.65849000  1
  C  C24  1  0.48028000  0.82888000  0.64420000  1
  C  C25  1  0.45204000  0.86724000  0.70800000  1
  C  C26  1  0.48810000  0.86120000  0.74550000  1
  C  C27  1  0.43620000  0.91739000  0.63619000  1
  C  C28  1  0.47064000  0.80596000  0.58672000  1
  C  C29  1  0.51440000  0.82280000  0.68340000  1
  C  C30  1  0.98040000  0.21350000  0.81970000  1
  C  C31  1  0.87190000  0.04060000  0.93450000  1
  C  C32  1  0.04398000  0.14608000  0.98032000  1
  C  C33  1  0.04822000  0.20671000  0.90189000  1
  C  C34  1  0.01972000  0.16392000  0.84860000  1
  C  C35  1  0.04796000  0.25596000  0.91520000  1
  C  C36  1  0.01190000  0.25740000  0.87310000  1
  C  C37  1  0.06380000  0.19999000  0.98119000  1
  C  C38  1  0.02936000  0.11608000  0.83532000  1
  C  C39  1  0.98560000  0.16900000  0.80840000  1
  C  C40  1  0.71350000  0.31970000  0.98040000  1
  C  C41  1  0.54060000  0.43450000  0.87190000  1
  C  C42  1  0.64608000  0.48032000  0.04398000  1
  C  C43  1  0.70671000  0.40189000  0.04822000  1
  C  C44  1  0.66392000  0.34860000  0.01972000  1
  C  C45  1  0.75596000  0.41520000  0.04796000  1
  C  C46  1  0.75740000  0.37310000  0.01190000  1
  C  C47  1  0.69999000  0.48119000  0.06380000  1
  C  C48  1  0.61608000  0.33532000  0.02936000  1
  C  C49  1  0.66900000  0.30840000  0.98560000  1
  C  C50  1  0.33930000  0.23310000  0.51960000  1
  C  C51  1  0.56260000  0.16870000  0.62810000  1
  C  C52  1  0.43634000  0.10210000  0.45602000  1
  C  C53  1  0.35367000  0.15849000  0.45178000  1
  C  C54  1  0.32888000  0.14420000  0.48028000  1
  C  C55  1  0.36724000  0.20800000  0.45204000  1
  C  C56  1  0.36120000  0.24550000  0.48810000  1
  C  C57  1  0.41739000  0.13619000  0.43620000  1
  C  C58  1  0.30596000  0.08672000  0.47064000  1
  C  C59  1  0.32280000  0.18340000  0.51440000  1
  C  C60  1  0.78650000  0.26690000  0.10620000  1
  C  C61  1  0.95940000  0.33130000  0.39390000  1
  C  C62  1  0.85392000  0.39790000  0.33424000  1
  C  C63  1  0.79329000  0.34151000  0.19518000  1
  C  C64  1  0.83608000  0.35580000  0.18468000  1
  C  C65  1  0.74404000  0.29200000  0.15924000  1
  C  C66  1  0.74260000  0.25450000  0.11570000  1
  C  C67  1  0.80001000  0.36381000  0.28120000  1
  C  C68  1  0.88392000  0.41328000  0.21924000  1
  C  C69  1  0.83100000  0.31660000  0.13940000  1
  C  C70  1  0.16070000  0.18030000  0.39380000  1
  C  C71  1  0.93740000  0.06550000  0.10610000  1
  C  C72  1  0.06366000  0.01968000  0.16576000  1
  C  C73  1  0.14633000  0.09811000  0.30482000  1
  C  C74  1  0.17112000  0.15140000  0.31532000  1
  C  C75  1  0.13276000  0.08480000  0.34076000  1
  C  C76  1  0.13880000  0.12690000  0.38430000  1
  C  C77  1  0.08261000  0.01881000  0.21880000  1
  C  C78  1  0.19404000  0.16468000  0.28076000  1
  C  C79  1  0.17720000  0.19160000  0.36060000  1
  C  C80  1  0.73310000  0.01960000  0.33930000  1
  C  C81  1  0.66870000  0.12810000  0.56260000  1
  C  C82  1  0.60210000  0.95602000  0.43634000  1
  C  C83  1  0.65849000  0.95178000  0.35367000  1
  C  C84  1  0.64420000  0.98028000  0.32888000  1
  C  C85  1  0.70800000  0.95204000  0.36724000  1
  C  C86  1  0.74550000  0.98810000  0.36120000  1
  C  C87  1  0.63619000  0.93620000  0.41739000  1
  C  C88  1  0.58672000  0.97064000  0.30596000  1
  C  C89  1  0.68340000  0.01440000  0.32280000  1
  C  C90  1  0.81970000  0.48040000  0.71350000  1
  C  C91  1  0.93450000  0.37190000  0.54060000  1
  C  C92  1  0.98032000  0.54398000  0.64608000  1
  C  C93  1  0.90189000  0.54822000  0.70671000  1
  C  C94  1  0.84860000  0.51972000  0.66392000  1
  C  C95  1  0.91520000  0.54796000  0.75596000  1
  C  C96  1  0.87310000  0.51190000  0.75740000  1
  C  C97  1  0.98119000  0.56380000  0.69999000  1
  C  C98  1  0.83532000  0.52936000  0.61608000  1
  C  C99  1  0.80840000  0.48560000  0.66900000  1
  C  C100  1  0.68030000  0.89380000  0.16070000  1
  C  C101  1  0.56550000  0.60610000  0.93740000  1
  C  C102  1  0.51968000  0.66576000  0.06366000  1
  C  C103  1  0.59811000  0.80482000  0.14633000  1
  C  C104  1  0.65140000  0.81532000  0.17112000  1
  C  C105  1  0.58480000  0.84076000  0.13276000  1
  C  C106  1  0.62690000  0.88430000  0.13880000  1
  C  C107  1  0.51881000  0.71880000  0.08261000  1
  C  C108  1  0.66468000  0.78076000  0.19404000  1
  C  C109  1  0.69160000  0.86060000  0.17720000  1
  C  C110  1  0.76690000  0.60620000  0.78650000  1
  C  C111  1  0.83130000  0.89390000  0.95940000  1
  C  C112  1  0.89790000  0.83424000  0.85392000  1
  C  C113  1  0.84151000  0.69518000  0.79329000  1
  C  C114  1  0.85580000  0.68468000  0.83608000  1
  C  C115  1  0.79200000  0.65924000  0.74404000  1
  C  C116  1  0.75450000  0.61570000  0.74260000  1
  C  C117  1  0.86381000  0.78120000  0.80001000  1
  C  C118  1  0.91328000  0.71924000  0.88392000  1
  C  C119  1  0.81660000  0.63940000  0.83100000  1
  C  C120  1  0.39380000  0.23310000  0.71350000  1
  C  C121  1  0.10610000  0.16870000  0.54060000  1
  C  C122  1  0.16576000  0.10210000  0.64608000  1
  C  C123  1  0.30482000  0.15849000  0.70671000  1
  C  C124  1  0.31532000  0.14420000  0.66392000  1
  C  C125  1  0.34076000  0.20800000  0.75596000  1
  C  C126  1  0.38430000  0.24550000  0.75740000  1
  C  C127  1  0.21880000  0.13619000  0.69999000  1
  C  C128  1  0.28076000  0.08672000  0.61608000  1
  C  C129  1  0.36060000  0.18340000  0.66900000  1
  C  C130  1  0.10620000  0.31970000  0.33930000  1
  C  C131  1  0.39390000  0.43450000  0.56260000  1
  C  C132  1  0.33424000  0.48032000  0.43634000  1
  C  C133  1  0.19518000  0.40189000  0.35367000  1
  C  C134  1  0.18468000  0.34860000  0.32888000  1
  C  C135  1  0.15924000  0.41520000  0.36724000  1
  C  C136  1  0.11570000  0.37310000  0.36120000  1
  C  C137  1  0.28120000  0.48119000  0.41739000  1
  C  C138  1  0.21924000  0.33532000  0.30596000  1
  C  C139  1  0.13940000  0.30840000  0.32280000  1
  C  C140  1  0.51960000  0.18030000  0.78650000  1
  C  C141  1  0.62810000  0.06550000  0.95940000  1
  C  C142  1  0.45602000  0.01968000  0.85392000  1
  C  C143  1  0.45178000  0.09811000  0.79329000  1
  C  C144  1  0.48028000  0.15140000  0.83608000  1
  C  C145  1  0.45204000  0.08480000  0.74404000  1
  C  C146  1  0.48810000  0.12690000  0.74260000  1
  C  C147  1  0.43620000  0.01881000  0.80001000  1
  C  C148  1  0.47064000  0.16468000  0.88392000  1
  C  C149  1  0.51440000  0.19160000  0.83100000  1
  C  C150  1  0.98040000  0.26690000  0.16070000  1
  C  C151  1  0.87190000  0.33130000  0.93740000  1
  C  C152  1  0.04398000  0.39790000  0.06366000  1
  C  C153  1  0.04822000  0.34151000  0.14633000  1
  C  C154  1  0.01972000  0.35580000  0.17112000  1
  C  C155  1  0.04796000  0.29200000  0.13276000  1
  C  C156  1  0.01190000  0.25450000  0.13880000  1
  C  C157  1  0.06380000  0.36381000  0.08261000  1
  C  C158  1  0.02936000  0.41328000  0.19404000  1
  C  C159  1  0.98560000  0.31660000  0.17720000  1
  C  C160  1  0.71350000  0.89380000  0.73310000  1
  C  C161  1  0.54060000  0.60610000  0.66870000  1
  C  C162  1  0.64608000  0.66576000  0.60210000  1
  C  C163  1  0.70671000  0.80482000  0.65849000  1
  C  C164  1  0.66392000  0.81532000  0.64420000  1
  C  C165  1  0.75596000  0.84076000  0.70800000  1
  C  C166  1  0.75740000  0.88430000  0.74550000  1
  C  C167  1  0.69999000  0.71880000  0.63619000  1
  C  C168  1  0.61608000  0.78076000  0.58672000  1
  C  C169  1  0.66900000  0.86060000  0.68340000  1
  C  C170  1  0.33930000  0.60620000  0.81970000  1
  C  C171  1  0.56260000  0.89390000  0.93450000  1
  C  C172  1  0.43634000  0.83424000  0.98032000  1
  C  C173  1  0.35367000  0.69518000  0.90189000  1
  C  C174  1  0.32888000  0.68468000  0.84860000  1
  C  C175  1  0.36724000  0.65924000  0.91520000  1
  C  C176  1  0.36120000  0.61570000  0.87310000  1
  C  C177  1  0.41739000  0.78120000  0.98119000  1
  C  C178  1  0.30596000  0.71924000  0.83532000  1
  C  C179  1  0.32280000  0.63940000  0.80840000  1
  C  C180  1  0.78650000  0.01960000  0.68030000  1
  C  C181  1  0.95940000  0.12810000  0.56550000  1
  C  C182  1  0.85392000  0.95602000  0.51968000  1
  C  C183  1  0.79329000  0.95178000  0.59811000  1
  C  C184  1  0.83608000  0.98028000  0.65140000  1
  C  C185  1  0.74404000  0.95204000  0.58480000  1
  C  C186  1  0.74260000  0.98810000  0.62690000  1
  C  C187  1  0.80001000  0.93620000  0.51881000  1
  C  C188  1  0.88392000  0.97064000  0.66468000  1
  C  C189  1  0.83100000  0.01440000  0.69160000  1
  C  C190  1  0.16070000  0.48040000  0.76690000  1
  C  C191  1  0.93740000  0.37190000  0.83130000  1
  C  C192  1  0.06366000  0.54398000  0.89790000  1
  C  C193  1  0.14633000  0.54822000  0.84151000  1
  C  C194  1  0.17112000  0.51972000  0.85580000  1
  C  C195  1  0.13276000  0.54796000  0.79200000  1
  C  C196  1  0.13880000  0.51190000  0.75450000  1
  C  C197  1  0.08261000  0.56380000  0.86381000  1
  C  C198  1  0.19404000  0.52936000  0.91328000  1
  C  C199  1  0.17720000  0.48560000  0.81660000  1
  C  C200  1  0.73310000  0.21350000  0.39380000  1
  C  C201  1  0.66870000  0.04060000  0.10610000  1
  C  C202  1  0.60210000  0.14608000  0.16576000  1
  C  C203  1  0.65849000  0.20671000  0.30482000  1
  C  C204  1  0.64420000  0.16392000  0.31532000  1
  C  C205  1  0.70800000  0.25596000  0.34076000  1
  C  C206  1  0.74550000  0.25740000  0.38430000  1
  C  C207  1  0.63619000  0.19999000  0.21880000  1
  C  C208  1  0.58672000  0.11608000  0.28076000  1
  C  C209  1  0.68340000  0.16900000  0.36060000  1
  C  C210  1  0.81970000  0.83930000  0.10620000  1
  C  C211  1  0.93450000  0.06260000  0.39390000  1
  C  C212  1  0.98032000  0.93634000  0.33424000  1
  C  C213  1  0.90189000  0.85367000  0.19518000  1
  C  C214  1  0.84860000  0.82888000  0.18468000  1
  C  C215  1  0.91520000  0.86724000  0.15924000  1
  C  C216  1  0.87310000  0.86120000  0.11570000  1
  C  C217  1  0.98119000  0.91739000  0.28120000  1
  C  C218  1  0.83532000  0.80596000  0.21924000  1
  C  C219  1  0.80840000  0.82280000  0.13940000  1
  C  C220  1  0.68030000  0.28650000  0.51960000  1
  C  C221  1  0.56550000  0.45940000  0.62810000  1
  C  C222  1  0.51968000  0.35392000  0.45602000  1
  C  C223  1  0.59811000  0.29329000  0.45178000  1
  C  C224  1  0.65140000  0.33608000  0.48028000  1
  C  C225  1  0.58480000  0.24404000  0.45204000  1
  C  C226  1  0.62690000  0.24260000  0.48810000  1
  C  C227  1  0.51881000  0.30001000  0.43620000  1
  C  C228  1  0.66468000  0.38392000  0.47064000  1
  C  C229  1  0.69160000  0.33100000  0.51440000  1
  C  C230  1  0.76690000  0.66070000  0.98040000  1
  C  C231  1  0.83130000  0.43740000  0.87190000  1
  C  C232  1  0.89790000  0.56366000  0.04398000  1
  C  C233  1  0.84151000  0.64633000  0.04822000  1
  C  C234  1  0.85580000  0.67112000  0.01972000  1
  C  C235  1  0.79200000  0.63276000  0.04796000  1
  C  C236  1  0.75450000  0.63880000  0.01190000  1
  C  C237  1  0.86381000  0.58261000  0.06380000  1
  C  C238  1  0.91328000  0.69404000  0.02936000  1
  C  C239  1  0.81660000  0.67720000  0.98560000  1
  C  C240  1  0.60620000  0.33930000  0.31970000  1
  C  C241  1  0.89390000  0.56260000  0.43450000  1
  C  C242  1  0.83424000  0.43634000  0.48032000  1
  C  C243  1  0.69518000  0.35367000  0.40189000  1
  C  C244  1  0.68468000  0.32888000  0.34860000  1
  C  C245  1  0.65924000  0.36724000  0.41520000  1
  C  C246  1  0.61570000  0.36120000  0.37310000  1
  C  C247  1  0.78120000  0.41739000  0.48119000  1
  C  C248  1  0.71924000  0.30596000  0.33532000  1
  C  C249  1  0.63940000  0.32280000  0.30840000  1
  C  C250  1  0.89380000  0.71350000  0.23310000  1
  C  C251  1  0.60610000  0.54060000  0.16870000  1
  C  C252  1  0.66576000  0.64608000  0.10210000  1
  C  C253  1  0.80482000  0.70671000  0.15849000  1
  C  C254  1  0.81532000  0.66392000  0.14420000  1
  C  C255  1  0.84076000  0.75596000  0.20800000  1
  C  C256  1  0.88430000  0.75740000  0.24550000  1
  C  C257  1  0.71880000  0.69999000  0.13619000  1
  C  C258  1  0.78076000  0.61608000  0.08672000  1
  C  C259  1  0.86060000  0.66900000  0.18340000  1
  C  C260  1  0.48040000  0.16070000  0.26690000  1
  C  C261  1  0.37190000  0.93740000  0.33130000  1
  C  C262  1  0.54398000  0.06366000  0.39790000  1
  C  C263  1  0.54822000  0.14633000  0.34151000  1
  C  C264  1  0.51972000  0.17112000  0.35580000  1
  C  C265  1  0.54796000  0.13276000  0.29200000  1
  C  C266  1  0.51190000  0.13880000  0.25450000  1
  C  C267  1  0.56380000  0.08261000  0.36381000  1
  C  C268  1  0.52936000  0.19404000  0.41328000  1
  C  C269  1  0.48560000  0.17720000  0.31660000  1
  C  C270  1  0.01960000  0.78650000  0.18030000  1
  C  C271  1  0.12810000  0.95940000  0.06550000  1
  C  C272  1  0.95602000  0.85392000  0.01968000  1
  C  C273  1  0.95178000  0.79329000  0.09811000  1
  C  C274  1  0.98028000  0.83608000  0.15140000  1
  C  C275  1  0.95204000  0.74404000  0.08480000  1
  C  C276  1  0.98810000  0.74260000  0.12690000  1
  C  C277  1  0.93620000  0.80001000  0.01881000  1
  C  C278  1  0.97064000  0.88392000  0.16468000  1
  C  C279  1  0.01440000  0.83100000  0.19160000  1
  C  C280  1  0.28650000  0.68030000  0.01960000  1
  C  C281  1  0.45940000  0.56550000  0.12810000  1
  C  C282  1  0.35392000  0.51968000  0.95602000  1
  C  C283  1  0.29329000  0.59811000  0.95178000  1
  C  C284  1  0.33608000  0.65140000  0.98028000  1
  C  C285  1  0.24404000  0.58480000  0.95204000  1
  C  C286  1  0.24260000  0.62690000  0.98810000  1
  C  C287  1  0.30001000  0.51881000  0.93620000  1
  C  C288  1  0.38392000  0.66468000  0.97064000  1
  C  C289  1  0.33100000  0.69160000  0.01440000  1
  C  C290  1  0.66070000  0.76690000  0.48040000  1
  C  C291  1  0.43740000  0.83130000  0.37190000  1
  C  C292  1  0.56366000  0.89790000  0.54398000  1
  C  C293  1  0.64633000  0.84151000  0.54822000  1
  C  C294  1  0.67112000  0.85580000  0.51972000  1
  C  C295  1  0.63276000  0.79200000  0.54796000  1
  C  C296  1  0.63880000  0.75450000  0.51190000  1
  C  C297  1  0.58261000  0.86381000  0.56380000  1
  C  C298  1  0.69404000  0.91328000  0.52936000  1
  C  C299  1  0.67720000  0.81660000  0.48560000  1
  C  C300  1  0.21350000  0.73310000  0.89380000  1
  C  C301  1  0.04060000  0.66870000  0.60610000  1
  C  C302  1  0.14608000  0.60210000  0.66576000  1
  C  C303  1  0.20671000  0.65849000  0.80482000  1
  C  C304  1  0.16392000  0.64420000  0.81532000  1
  C  C305  1  0.25596000  0.70800000  0.84076000  1
  C  C306  1  0.25740000  0.74550000  0.88430000  1
  C  C307  1  0.19999000  0.63619000  0.71880000  1
  C  C308  1  0.11608000  0.58672000  0.78076000  1
  C  C309  1  0.16900000  0.68340000  0.86060000  1
  C  C310  1  0.83930000  0.81970000  0.60620000  1
  C  C311  1  0.06260000  0.93450000  0.89390000  1
  C  C312  1  0.93634000  0.98032000  0.83424000  1
  C  C313  1  0.85367000  0.90189000  0.69518000  1
  C  C314  1  0.82888000  0.84860000  0.68468000  1
  C  C315  1  0.86724000  0.91520000  0.65924000  1
  C  C316  1  0.86120000  0.87310000  0.61570000  1
  C  C317  1  0.91739000  0.98119000  0.78120000  1
  C  C318  1  0.80596000  0.83532000  0.71924000  1
  C  C319  1  0.82280000  0.80840000  0.63940000  1
  C  C320  1  0.26690000  0.98040000  0.66070000  1
  C  C321  1  0.33130000  0.87190000  0.43740000  1
  C  C322  1  0.39790000  0.04398000  0.56366000  1
  C  C323  1  0.34151000  0.04822000  0.64633000  1
  C  C324  1  0.35580000  0.01972000  0.67112000  1
  C  C325  1  0.29200000  0.04796000  0.63276000  1
  C  C326  1  0.25450000  0.01190000  0.63880000  1
  C  C327  1  0.36381000  0.06380000  0.58261000  1
  C  C328  1  0.41328000  0.02936000  0.69404000  1
  C  C329  1  0.31660000  0.98560000  0.67720000  1
  C  C330  1  0.18030000  0.51960000  0.28650000  1
  C  C331  1  0.06550000  0.62810000  0.45940000  1
  C  C332  1  0.01968000  0.45602000  0.35392000  1
  C  C333  1  0.09811000  0.45178000  0.29329000  1
  C  C334  1  0.15140000  0.48028000  0.33608000  1
  C  C335  1  0.08480000  0.45204000  0.24404000  1
  C  C336  1  0.12690000  0.48810000  0.24260000  1
  C  C337  1  0.01881000  0.43620000  0.30001000  1
  C  C338  1  0.16468000  0.47064000  0.38392000  1
  C  C339  1  0.19160000  0.51440000  0.33100000  1
  C  C340  1  0.31970000  0.10620000  0.83930000  1
  C  C341  1  0.43450000  0.39390000  0.06260000  1
  C  C342  1  0.48032000  0.33424000  0.93634000  1
  C  C343  1  0.40189000  0.19518000  0.85367000  1
  C  C344  1  0.34860000  0.18468000  0.82888000  1
  C  C345  1  0.41520000  0.15924000  0.86724000  1
  C  C346  1  0.37310000  0.11570000  0.86120000  1
  C  C347  1  0.48119000  0.28120000  0.91739000  1
  C  C348  1  0.33532000  0.21924000  0.80596000  1
  C  C349  1  0.30840000  0.13940000  0.82280000  1
  C  C350  1  0.23310000  0.39380000  0.21350000  1
  C  C351  1  0.16870000  0.10610000  0.04060000  1
  C  C352  1  0.10210000  0.16576000  0.14608000  1
  C  C353  1  0.15849000  0.30482000  0.20671000  1
  C  C354  1  0.14420000  0.31532000  0.16392000  1
  C  C355  1  0.20800000  0.34076000  0.25596000  1
  C  C356  1  0.24550000  0.38430000  0.25740000  1
  C  C357  1  0.13619000  0.21880000  0.19999000  1
  C  C358  1  0.08672000  0.28076000  0.11608000  1
  C  C359  1  0.18340000  0.36060000  0.16900000  1
  C  C360  1  0.60620000  0.76690000  0.28650000  1
  C  C361  1  0.89390000  0.83130000  0.45940000  1
  C  C362  1  0.83424000  0.89790000  0.35392000  1
  C  C363  1  0.69518000  0.84151000  0.29329000  1
  C  C364  1  0.68468000  0.85580000  0.33608000  1
  C  C365  1  0.65924000  0.79200000  0.24404000  1
  C  C366  1  0.61570000  0.75450000  0.24260000  1
  C  C367  1  0.78120000  0.86381000  0.30001000  1
  C  C368  1  0.71924000  0.91328000  0.38392000  1
  C  C369  1  0.63940000  0.81660000  0.33100000  1
  C  C370  1  0.89380000  0.68030000  0.66070000  1
  C  C371  1  0.60610000  0.56550000  0.43740000  1
  C  C372  1  0.66576000  0.51968000  0.56366000  1
  C  C373  1  0.80482000  0.59811000  0.64633000  1
  C  C374  1  0.81532000  0.65140000  0.67112000  1
  C  C375  1  0.84076000  0.58480000  0.63276000  1
  C  C376  1  0.88430000  0.62690000  0.63880000  1
  C  C377  1  0.71880000  0.51881000  0.58261000  1
  C  C378  1  0.78076000  0.66468000  0.69404000  1
  C  C379  1  0.86060000  0.69160000  0.67720000  1
  C  C380  1  0.48040000  0.81970000  0.21350000  1
  C  C381  1  0.37190000  0.93450000  0.04060000  1
  C  C382  1  0.54398000  0.98032000  0.14608000  1
  C  C383  1  0.54822000  0.90189000  0.20671000  1
  C  C384  1  0.51972000  0.84860000  0.16392000  1
  C  C385  1  0.54796000  0.91520000  0.25596000  1
  C  C386  1  0.51190000  0.87310000  0.25740000  1
  C  C387  1  0.56380000  0.98119000  0.19999000  1
  C  C388  1  0.52936000  0.83532000  0.11608000  1
  C  C389  1  0.48560000  0.80840000  0.16900000  1
  C  C390  1  0.01960000  0.73310000  0.83930000  1
  C  C391  1  0.12810000  0.66870000  0.06260000  1
  C  C392  1  0.95602000  0.60210000  0.93634000  1
  C  C393  1  0.95178000  0.65849000  0.85367000  1
  C  C394  1  0.98028000  0.64420000  0.82888000  1
  C  C395  1  0.95204000  0.70800000  0.86724000  1
  C  C396  1  0.98810000  0.74550000  0.86120000  1
  C  C397  1  0.93620000  0.63619000  0.91739000  1
  C  C398  1  0.97064000  0.58672000  0.80596000  1
  C  C399  1  0.01440000  0.68340000  0.82280000  1
  C  C400  1  0.28650000  0.10620000  0.26690000  1
  C  C401  1  0.45940000  0.39390000  0.33130000  1
  C  C402  1  0.35392000  0.33424000  0.39790000  1
  C  C403  1  0.29329000  0.19518000  0.34151000  1
  C  C404  1  0.33608000  0.18468000  0.35580000  1
  C  C405  1  0.24404000  0.15924000  0.29200000  1
  C  C406  1  0.24260000  0.11570000  0.25450000  1
  C  C407  1  0.30001000  0.28120000  0.36381000  1
  C  C408  1  0.38392000  0.21924000  0.41328000  1
  C  C409  1  0.33100000  0.13940000  0.31660000  1
  C  C410  1  0.66070000  0.39380000  0.18030000  1
  C  C411  1  0.43740000  0.10610000  0.06550000  1
  C  C412  1  0.56366000  0.16576000  0.01968000  1
  C  C413  1  0.64633000  0.30482000  0.09811000  1
  C  C414  1  0.67112000  0.31532000  0.15140000  1
  C  C415  1  0.63276000  0.34076000  0.08480000  1
  C  C416  1  0.63880000  0.38430000  0.12690000  1
  C  C417  1  0.58261000  0.21880000  0.01881000  1
  C  C418  1  0.69404000  0.28076000  0.16468000  1
  C  C419  1  0.67720000  0.36060000  0.19160000  1
  C  C420  1  0.21350000  0.98040000  0.31970000  1
  C  C421  1  0.04060000  0.87190000  0.43450000  1
  C  C422  1  0.14608000  0.04398000  0.48032000  1
  C  C423  1  0.20671000  0.04822000  0.40189000  1
  C  C424  1  0.16392000  0.01972000  0.34860000  1
  C  C425  1  0.25596000  0.04796000  0.41520000  1
  C  C426  1  0.25740000  0.01190000  0.37310000  1
  C  C427  1  0.19999000  0.06380000  0.48119000  1
  C  C428  1  0.11608000  0.02936000  0.33532000  1
  C  C429  1  0.16900000  0.98560000  0.30840000  1
  C  C430  1  0.83930000  0.51960000  0.23310000  1
  C  C431  1  0.06260000  0.62810000  0.16870000  1
  C  C432  1  0.93634000  0.45602000  0.10210000  1
  C  C433  1  0.85367000  0.45178000  0.15849000  1
  C  C434  1  0.82888000  0.48028000  0.14420000  1
  C  C435  1  0.86724000  0.45204000  0.20800000  1
  C  C436  1  0.86120000  0.48810000  0.24550000  1
  C  C437  1  0.91739000  0.43620000  0.13619000  1
  C  C438  1  0.80596000  0.47064000  0.08672000  1
  C  C439  1  0.82280000  0.51440000  0.18340000  1
  C  C440  1  0.26690000  0.78650000  0.60620000  1
  C  C441  1  0.33130000  0.95940000  0.89390000  1
  C  C442  1  0.39790000  0.85392000  0.83424000  1
  C  C443  1  0.34151000  0.79329000  0.69518000  1
  C  C444  1  0.35580000  0.83608000  0.68468000  1
  C  C445  1  0.29200000  0.74404000  0.65924000  1
  C  C446  1  0.25450000  0.74260000  0.61570000  1
  C  C447  1  0.36381000  0.80001000  0.78120000  1
  C  C448  1  0.41328000  0.88392000  0.71924000  1
  C  C449  1  0.31660000  0.83100000  0.63940000  1
  C  C450  1  0.18030000  0.16070000  0.89380000  1
  C  C451  1  0.06550000  0.93740000  0.60610000  1
  C  C452  1  0.01968000  0.06366000  0.66576000  1
  C  C453  1  0.09811000  0.14633000  0.80482000  1
  C  C454  1  0.15140000  0.17112000  0.81532000  1
  C  C455  1  0.08480000  0.13276000  0.84076000  1
  C  C456  1  0.12690000  0.13880000  0.88430000  1
  C  C457  1  0.01881000  0.08261000  0.71880000  1
  C  C458  1  0.16468000  0.19404000  0.78076000  1
  C  C459  1  0.19160000  0.17720000  0.86060000  1
  C  C460  1  0.31970000  0.71350000  0.48040000  1
  C  C461  1  0.43450000  0.54060000  0.37190000  1
  C  C462  1  0.48032000  0.64608000  0.54398000  1
  C  C463  1  0.40189000  0.70671000  0.54822000  1
  C  C464  1  0.34860000  0.66392000  0.51972000  1
  C  C465  1  0.41520000  0.75596000  0.54796000  1
  C  C466  1  0.37310000  0.75740000  0.51190000  1
  C  C467  1  0.48119000  0.69999000  0.56380000  1
  C  C468  1  0.33532000  0.61608000  0.52936000  1
  C  C469  1  0.30840000  0.66900000  0.48560000  1
  C  C470  1  0.23310000  0.33930000  0.01960000  1
  C  C471  1  0.16870000  0.56260000  0.12810000  1
  C  C472  1  0.10210000  0.43634000  0.95602000  1
  C  C473  1  0.15849000  0.35367000  0.95178000  1
  C  C474  1  0.14420000  0.32888000  0.98028000  1
  C  C475  1  0.20800000  0.36724000  0.95204000  1
  C  C476  1  0.24550000  0.36120000  0.98810000  1
  C  C477  1  0.13619000  0.41739000  0.93620000  1
  C  C478  1  0.08672000  0.30596000  0.97064000  1
  C  C479  1  0.18340000  0.32280000  0.01440000  1
  H  H480  1  0.42306000  0.66379000  0.70797000  1
  H  H481  1  0.12984000  0.42590000  0.58042000  1
  H  H482  1  0.40808000  0.62790000  0.61926000  1
  H  H483  1  0.23431000  0.56006000  0.52571000  1
  H  H484  1  0.21073000  0.57639000  0.48218000  1
  H  H485  1  0.24213000  0.66646000  0.63989000  1
  H  H486  1  0.28873000  0.70337000  0.70198000  1
  H  H487  1  0.36815000  0.69335000  0.72780000  1
  H  H488  1  0.07694000  0.28491000  0.74073000  1
  H  H489  1  0.37016000  0.45058000  0.79606000  1
  H  H490  1  0.09192000  0.21118000  0.71982000  1
  H  H491  1  0.26569000  0.29140000  0.82575000  1
  H  H492  1  0.28927000  0.27145000  0.86566000  1
  H  H493  1  0.25787000  0.39776000  0.92433000  1
  H  H494  1  0.21127000  0.41325000  0.91464000  1
  H  H495  1  0.13185000  0.35965000  0.82520000  1
  H  H496  1  0.54418000  0.83621000  0.75927000  1
  H  H497  1  0.65452000  0.07410000  0.70394000  1
  H  H498  1  0.49136000  0.87210000  0.78018000  1
  H  H499  1  0.46565000  0.93994000  0.67425000  1
  H  H500  1  0.40579000  0.92361000  0.63434000  1
  H  H501  1  0.47343000  0.83354000  0.57567000  1
  H  H502  1  0.49861000  0.79663000  0.58536000  1
  H  H503  1  0.53445000  0.80665000  0.67480000  1
  H  H504  1  0.95582000  0.21509000  0.79203000  1
  H  H505  1  0.84548000  0.04942000  0.91958000  1
  H  H506  1  0.00864000  0.28882000  0.88074000  1
  H  H507  1  0.03435000  0.20860000  0.97429000  1
  H  H508  1  0.09421000  0.22855000  0.01782000  1
  H  H509  1  0.02657000  0.10224000  0.86011000  1
  H  H510  1  0.00139000  0.08675000  0.79802000  1
  H  H511  1  0.96555000  0.14035000  0.77220000  1
  H  H512  1  0.71509000  0.29203000  0.95582000  1
  H  H513  1  0.54942000  0.41958000  0.84548000  1
  H  H514  1  0.78882000  0.38074000  0.00864000  1
  H  H515  1  0.70860000  0.47429000  0.03435000  1
  H  H516  1  0.72855000  0.51782000  0.09421000  1
  H  H517  1  0.60224000  0.36011000  0.02657000  1
  H  H518  1  0.58675000  0.29802000  0.00139000  1
  H  H519  1  0.64035000  0.27220000  0.96555000  1
  H  H520  1  0.33621000  0.25927000  0.54418000  1
  H  H521  1  0.57410000  0.20394000  0.65452000  1
  H  H522  1  0.37210000  0.28018000  0.49136000  1
  H  H523  1  0.43994000  0.17425000  0.46565000  1
  H  H524  1  0.42361000  0.13434000  0.40579000  1
  H  H525  1  0.33354000  0.07567000  0.47343000  1
  H  H526  1  0.29663000  0.08536000  0.49861000  1
  H  H527  1  0.30665000  0.17480000  0.53445000  1
  H  H528  1  0.78491000  0.24073000  0.07694000  1
  H  H529  1  0.95058000  0.29606000  0.37016000  1
  H  H530  1  0.71118000  0.21982000  0.09192000  1
  H  H531  1  0.79140000  0.32575000  0.26569000  1
  H  H532  1  0.77145000  0.36566000  0.28927000  1
  H  H533  1  0.89776000  0.42433000  0.25787000  1
  H  H534  1  0.91325000  0.41464000  0.21127000  1
  H  H535  1  0.85965000  0.32520000  0.13185000  1
  H  H536  1  0.16379000  0.20797000  0.42306000  1
  H  H537  1  0.92590000  0.08042000  0.12984000  1
  H  H538  1  0.12790000  0.11926000  0.40808000  1
  H  H539  1  0.06006000  0.02571000  0.23431000  1
  H  H540  1  0.07639000  0.98218000  0.21073000  1
  H  H541  1  0.16646000  0.13989000  0.24213000  1
  H  H542  1  0.20337000  0.20198000  0.28873000  1
  H  H543  1  0.19335000  0.22780000  0.36815000  1
  H  H544  1  0.75927000  0.04418000  0.33621000  1
  H  H545  1  0.70394000  0.15452000  0.57410000  1
  H  H546  1  0.78018000  0.99136000  0.37210000  1
  H  H547  1  0.67425000  0.96565000  0.43994000  1
  H  H548  1  0.63434000  0.90579000  0.42361000  1
  H  H549  1  0.57567000  0.97343000  0.33354000  1
  H  H550  1  0.58536000  0.99861000  0.29663000  1
  H  H551  1  0.67480000  0.03445000  0.30665000  1
  H  H552  1  0.79203000  0.45582000  0.71509000  1
  H  H553  1  0.91958000  0.34548000  0.54942000  1
  H  H554  1  0.88074000  0.50864000  0.78882000  1
  H  H555  1  0.97429000  0.53435000  0.70860000  1
  H  H556  1  0.01782000  0.59421000  0.72855000  1
  H  H557  1  0.86011000  0.52657000  0.60224000  1
  H  H558  1  0.79802000  0.50139000  0.58675000  1
  H  H559  1  0.77220000  0.46555000  0.64035000  1
  H  H560  1  0.70797000  0.92306000  0.16379000  1
  H  H561  1  0.58042000  0.62984000  0.92590000  1
  H  H562  1  0.61926000  0.90808000  0.12790000  1
  H  H563  1  0.52571000  0.73431000  0.06006000  1
  H  H564  1  0.48218000  0.71073000  0.07639000  1
  H  H565  1  0.63989000  0.74213000  0.16646000  1
  H  H566  1  0.70198000  0.78873000  0.20337000  1
  H  H567  1  0.72780000  0.86815000  0.19335000  1
  H  H568  1  0.74073000  0.57694000  0.78491000  1
  H  H569  1  0.79606000  0.87016000  0.95058000  1
  H  H570  1  0.71982000  0.59192000  0.71118000  1
  H  H571  1  0.82575000  0.76569000  0.79140000  1
  H  H572  1  0.86566000  0.78927000  0.77145000  1
  H  H573  1  0.92433000  0.75787000  0.89776000  1
  H  H574  1  0.91464000  0.71127000  0.91325000  1
  H  H575  1  0.82520000  0.63185000  0.85965000  1
  H  H576  1  0.42306000  0.25927000  0.71509000  1
  H  H577  1  0.12984000  0.20394000  0.54942000  1
  H  H578  1  0.40808000  0.28018000  0.78882000  1
  H  H579  1  0.23431000  0.17425000  0.70860000  1
  H  H580  1  0.21073000  0.13434000  0.72855000  1
  H  H581  1  0.24213000  0.07567000  0.60224000  1
  H  H582  1  0.28873000  0.08536000  0.58675000  1
  H  H583  1  0.36815000  0.17480000  0.64035000  1
  H  H584  1  0.07694000  0.29203000  0.33621000  1
  H  H585  1  0.37016000  0.41958000  0.57410000  1
  H  H586  1  0.09192000  0.38074000  0.37210000  1
  H  H587  1  0.26569000  0.47429000  0.43994000  1
  H  H588  1  0.28927000  0.51782000  0.42361000  1
  H  H589  1  0.25787000  0.36011000  0.33354000  1
  H  H590  1  0.21127000  0.29802000  0.29663000  1
  H  H591  1  0.13185000  0.27220000  0.30665000  1
  H  H592  1  0.54418000  0.20797000  0.78491000  1
  H  H593  1  0.65452000  0.08042000  0.95058000  1
  H  H594  1  0.49136000  0.11926000  0.71118000  1
  H  H595  1  0.46565000  0.02571000  0.79140000  1
  H  H596  1  0.40579000  0.98218000  0.77145000  1
  H  H597  1  0.47343000  0.13989000  0.89776000  1
  H  H598  1  0.49861000  0.20198000  0.91325000  1
  H  H599  1  0.53445000  0.22780000  0.85965000  1
  H  H600  1  0.95582000  0.24073000  0.16379000  1
  H  H601  1  0.84548000  0.29606000  0.92590000  1
  H  H602  1  0.00864000  0.21982000  0.12790000  1
  H  H603  1  0.03435000  0.32575000  0.06006000  1
  H  H604  1  0.09421000  0.36566000  0.07639000  1
  H  H605  1  0.02657000  0.42433000  0.16646000  1
  H  H606  1  0.00139000  0.41464000  0.20337000  1
  H  H607  1  0.96555000  0.32520000  0.19335000  1
  H  H608  1  0.71509000  0.92306000  0.75927000  1
  H  H609  1  0.54942000  0.62984000  0.70394000  1
  H  H610  1  0.78882000  0.90808000  0.78018000  1
  H  H611  1  0.70860000  0.73431000  0.67425000  1
  H  H612  1  0.72855000  0.71073000  0.63434000  1
  H  H613  1  0.60224000  0.74213000  0.57567000  1
  H  H614  1  0.58675000  0.78873000  0.58536000  1
  H  H615  1  0.64035000  0.86815000  0.67480000  1
  H  H616  1  0.33621000  0.57694000  0.79203000  1
  H  H617  1  0.57410000  0.87016000  0.91958000  1
  H  H618  1  0.37210000  0.59192000  0.88074000  1
  H  H619  1  0.43994000  0.76569000  0.97429000  1
  H  H620  1  0.42361000  0.78927000  0.01782000  1
  H  H621  1  0.33354000  0.75787000  0.86011000  1
  H  H622  1  0.29663000  0.71127000  0.79802000  1
  H  H623  1  0.30665000  0.63185000  0.77220000  1
  H  H624  1  0.78491000  0.04418000  0.70797000  1
  H  H625  1  0.95058000  0.15452000  0.58042000  1
  H  H626  1  0.71118000  0.99136000  0.61926000  1
  H  H627  1  0.79140000  0.96565000  0.52571000  1
  H  H628  1  0.77145000  0.90579000  0.48218000  1
  H  H629  1  0.89776000  0.97343000  0.63989000  1
  H  H630  1  0.91325000  0.99861000  0.70198000  1
  H  H631  1  0.85965000  0.03445000  0.72780000  1
  H  H632  1  0.16379000  0.45582000  0.74073000  1
  H  H633  1  0.92590000  0.34548000  0.79606000  1
  H  H634  1  0.12790000  0.50864000  0.71982000  1
  H  H635  1  0.06006000  0.53435000  0.82575000  1
  H  H636  1  0.07639000  0.59421000  0.86566000  1
  H  H637  1  0.16646000  0.52657000  0.92433000  1
  H  H638  1  0.20337000  0.50139000  0.91464000  1
  H  H639  1  0.19335000  0.46555000  0.82520000  1
  H  H640  1  0.75927000  0.21509000  0.42306000  1
  H  H641  1  0.70394000  0.04942000  0.12984000  1
  H  H642  1  0.78018000  0.28882000  0.40808000  1
  H  H643  1  0.67425000  0.20860000  0.23431000  1
  H  H644  1  0.63434000  0.22855000  0.21073000  1
  H  H645  1  0.57567000  0.10224000  0.24213000  1
  H  H646  1  0.58536000  0.08675000  0.28873000  1
  H  H647  1  0.67480000  0.14035000  0.36815000  1
  H  H648  1  0.79203000  0.83621000  0.07694000  1
  H  H649  1  0.91958000  0.07410000  0.37016000  1
  H  H650  1  0.88074000  0.87210000  0.09192000  1
  H  H651  1  0.97429000  0.93994000  0.26569000  1
  H  H652  1  0.01782000  0.92361000  0.28927000  1
  H  H653  1  0.86011000  0.83354000  0.25787000  1
  H  H654  1  0.79802000  0.79663000  0.21127000  1
  H  H655  1  0.77220000  0.80665000  0.13185000  1
  H  H656  1  0.70797000  0.28491000  0.54418000  1
  H  H657  1  0.58042000  0.45058000  0.65452000  1
  H  H658  1  0.61926000  0.21118000  0.49136000  1
  H  H659  1  0.52571000  0.29140000  0.46565000  1
  H  H660  1  0.48218000  0.27145000  0.40579000  1
  H  H661  1  0.63989000  0.39776000  0.47343000  1
  H  H662  1  0.70198000  0.41325000  0.49861000  1
  H  H663  1  0.72780000  0.35965000  0.53445000  1
  H  H664  1  0.74073000  0.66379000  0.95582000  1
  H  H665  1  0.79606000  0.42590000  0.84548000  1
  H  H666  1  0.71982000  0.62790000  0.00864000  1
  H  H667  1  0.82575000  0.56006000  0.03435000  1
  H  H668  1  0.86566000  0.57639000  0.09421000  1
  H  H669  1  0.92433000  0.66646000  0.02657000  1
  H  H670  1  0.91464000  0.70337000  0.00139000  1
  H  H671  1  0.82520000  0.69335000  0.96555000  1
  H  H672  1  0.57694000  0.33621000  0.29203000  1
  H  H673  1  0.87016000  0.57410000  0.41958000  1
  H  H674  1  0.59192000  0.37210000  0.38074000  1
  H  H675  1  0.76569000  0.43994000  0.47429000  1
  H  H676  1  0.78927000  0.42361000  0.51782000  1
  H  H677  1  0.75787000  0.33354000  0.36011000  1
  H  H678  1  0.71127000  0.29663000  0.29802000  1
  H  H679  1  0.63185000  0.30665000  0.27220000  1
  H  H680  1  0.92306000  0.71509000  0.25927000  1
  H  H681  1  0.62984000  0.54942000  0.20394000  1
  H  H682  1  0.90808000  0.78882000  0.28018000  1
  H  H683  1  0.73431000  0.70860000  0.17425000  1
  H  H684  1  0.71073000  0.72855000  0.13434000  1
  H  H685  1  0.74213000  0.60224000  0.07567000  1
  H  H686  1  0.78873000  0.58675000  0.08536000  1
  H  H687  1  0.86815000  0.64035000  0.17480000  1
  H  H688  1  0.45582000  0.16379000  0.24073000  1
  H  H689  1  0.34548000  0.92590000  0.29606000  1
  H  H690  1  0.50864000  0.12790000  0.21982000  1
  H  H691  1  0.53435000  0.06006000  0.32575000  1
  H  H692  1  0.59421000  0.07639000  0.36566000  1
  H  H693  1  0.52657000  0.16646000  0.42433000  1
  H  H694  1  0.50139000  0.20337000  0.41464000  1
  H  H695  1  0.46555000  0.19335000  0.32520000  1
  H  H696  1  0.04418000  0.78491000  0.20797000  1
  H  H697  1  0.15452000  0.95058000  0.08042000  1
  H  H698  1  0.99136000  0.71118000  0.11926000  1
  H  H699  1  0.96565000  0.79140000  0.02571000  1
  H  H700  1  0.90579000  0.77145000  0.98218000  1
  H  H701  1  0.97343000  0.89776000  0.13989000  1
  H  H702  1  0.99861000  0.91325000  0.20198000  1
  H  H703  1  0.03445000  0.85965000  0.22780000  1
  H  H704  1  0.28491000  0.70797000  0.04418000  1
  H  H705  1  0.45058000  0.58042000  0.15452000  1
  H  H706  1  0.21118000  0.61926000  0.99136000  1
  H  H707  1  0.29140000  0.52571000  0.96565000  1
  H  H708  1  0.27145000  0.48218000  0.90579000  1
  H  H709  1  0.39776000  0.63989000  0.97343000  1
  H  H710  1  0.41325000  0.70198000  0.99861000  1
  H  H711  1  0.35965000  0.72780000  0.03445000  1
  H  H712  1  0.66379000  0.74073000  0.45582000  1
  H  H713  1  0.42590000  0.79606000  0.34548000  1
  H  H714  1  0.62790000  0.71982000  0.50864000  1
  H  H715  1  0.56006000  0.82575000  0.53435000  1
  H  H716  1  0.57639000  0.86566000  0.59421000  1
  H  H717  1  0.66646000  0.92433000  0.52657000  1
  H  H718  1  0.70337000  0.91464000  0.50139000  1
  H  H719  1  0.69335000  0.82520000  0.46555000  1
  H  H720  1  0.21509000  0.75927000  0.92306000  1
  H  H721  1  0.04942000  0.70394000  0.62984000  1
  H  H722  1  0.28882000  0.78018000  0.90808000  1
  H  H723  1  0.20860000  0.67425000  0.73431000  1
  H  H724  1  0.22855000  0.63434000  0.71073000  1
  H  H725  1  0.10224000  0.57567000  0.74213000  1
  H  H726  1  0.08675000  0.58536000  0.78873000  1
  H  H727  1  0.14035000  0.67480000  0.86815000  1
  H  H728  1  0.83621000  0.79203000  0.57694000  1
  H  H729  1  0.07410000  0.91958000  0.87016000  1
  H  H730  1  0.87210000  0.88074000  0.59192000  1
  H  H731  1  0.93994000  0.97429000  0.76569000  1
  H  H732  1  0.92361000  0.01782000  0.78927000  1
  H  H733  1  0.83354000  0.86011000  0.75787000  1
  H  H734  1  0.79663000  0.79802000  0.71127000  1
  H  H735  1  0.80665000  0.77220000  0.63185000  1
  H  H736  1  0.24073000  0.95582000  0.66379000  1
  H  H737  1  0.29606000  0.84548000  0.42590000  1
  H  H738  1  0.21982000  0.00864000  0.62790000  1
  H  H739  1  0.32575000  0.03435000  0.56006000  1
  H  H740  1  0.36566000  0.09421000  0.57639000  1
  H  H741  1  0.42433000  0.02657000  0.66646000  1
  H  H742  1  0.41464000  0.00139000  0.70337000  1
  H  H743  1  0.32520000  0.96555000  0.69335000  1
  H  H744  1  0.20797000  0.54418000  0.28491000  1
  H  H745  1  0.08042000  0.65452000  0.45058000  1
  H  H746  1  0.11926000  0.49136000  0.21118000  1
  H  H747  1  0.02571000  0.46565000  0.29140000  1
  H  H748  1  0.98218000  0.40579000  0.27145000  1
  H  H749  1  0.13989000  0.47343000  0.39776000  1
  H  H750  1  0.20198000  0.49861000  0.41325000  1
  H  H751  1  0.22780000  0.53445000  0.35965000  1
  H  H752  1  0.29203000  0.07694000  0.83621000  1
  H  H753  1  0.41958000  0.37016000  0.07410000  1
  H  H754  1  0.38074000  0.09192000  0.87210000  1
  H  H755  1  0.47429000  0.26569000  0.93994000  1
  H  H756  1  0.51782000  0.28927000  0.92361000  1
  H  H757  1  0.36011000  0.25787000  0.83354000  1
  H  H758  1  0.29802000  0.21127000  0.79663000  1
  H  H759  1  0.27220000  0.13185000  0.80665000  1
  H  H760  1  0.25927000  0.42306000  0.21509000  1
  H  H761  1  0.20394000  0.12984000  0.04942000  1
  H  H762  1  0.28018000  0.40808000  0.28882000  1
  H  H763  1  0.17425000  0.23431000  0.20860000  1
  H  H764  1  0.13434000  0.21073000  0.22855000  1
  H  H765  1  0.07567000  0.24213000  0.10224000  1
  H  H766  1  0.08536000  0.28873000  0.08675000  1
  H  H767  1  0.17480000  0.36815000  0.14035000  1
  H  H768  1  0.57694000  0.74073000  0.28491000  1
  H  H769  1  0.87016000  0.79606000  0.45058000  1
  H  H770  1  0.59192000  0.71982000  0.21118000  1
  H  H771  1  0.76569000  0.82575000  0.29140000  1
  H  H772  1  0.78927000  0.86566000  0.27145000  1
  H  H773  1  0.75787000  0.92433000  0.39776000  1
  H  H774  1  0.71127000  0.91464000  0.41325000  1
  H  H775  1  0.63185000  0.82520000  0.35965000  1
  H  H776  1  0.92306000  0.70797000  0.66379000  1
  H  H777  1  0.62984000  0.58042000  0.42590000  1
  H  H778  1  0.90808000  0.61926000  0.62790000  1
  H  H779  1  0.73431000  0.52571000  0.56006000  1
  H  H780  1  0.71073000  0.48218000  0.57639000  1
  H  H781  1  0.74213000  0.63989000  0.66646000  1
  H  H782  1  0.78873000  0.70198000  0.70337000  1
  H  H783  1  0.86815000  0.72780000  0.69335000  1
  H  H784  1  0.45582000  0.79203000  0.21509000  1
  H  H785  1  0.34548000  0.91958000  0.04942000  1
  H  H786  1  0.50864000  0.88074000  0.28882000  1
  H  H787  1  0.53435000  0.97429000  0.20860000  1
  H  H788  1  0.59421000  0.01782000  0.22855000  1
  H  H789  1  0.52657000  0.86011000  0.10224000  1
  H  H790  1  0.50139000  0.79802000  0.08675000  1
  H  H791  1  0.46555000  0.77220000  0.14035000  1
  H  H792  1  0.04418000  0.75927000  0.83621000  1
  H  H793  1  0.15452000  0.70394000  0.07410000  1
  H  H794  1  0.99136000  0.78018000  0.87210000  1
  H  H795  1  0.96565000  0.67425000  0.93994000  1
  H  H796  1  0.90579000  0.63434000  0.92361000  1
  H  H797  1  0.97343000  0.57567000  0.83354000  1
  H  H798  1  0.99861000  0.58536000  0.79663000  1
  H  H799  1  0.03445000  0.67480000  0.80665000  1
  H  H800  1  0.28491000  0.07694000  0.24073000  1
  H  H801  1  0.45058000  0.37016000  0.29606000  1
  H  H802  1  0.21118000  0.09192000  0.21982000  1
  H  H803  1  0.29140000  0.26569000  0.32575000  1
  H  H804  1  0.27145000  0.28927000  0.36566000  1
  H  H805  1  0.39776000  0.25787000  0.42433000  1
  H  H806  1  0.41325000  0.21127000  0.41464000  1
  H  H807  1  0.35965000  0.13185000  0.32520000  1
  H  H808  1  0.66379000  0.42306000  0.20797000  1
  H  H809  1  0.42590000  0.12984000  0.08042000  1
  H  H810  1  0.62790000  0.40808000  0.11926000  1
  H  H811  1  0.56006000  0.23431000  0.02571000  1
  H  H812  1  0.57639000  0.21073000  0.98218000  1
  H  H813  1  0.66646000  0.24213000  0.13989000  1
  H  H814  1  0.70337000  0.28873000  0.20198000  1
  H  H815  1  0.69335000  0.36815000  0.22780000  1
  H  H816  1  0.21509000  0.95582000  0.29203000  1
  H  H817  1  0.04942000  0.84548000  0.41958000  1
  H  H818  1  0.28882000  0.00864000  0.38074000  1
  H  H819  1  0.20860000  0.03435000  0.47429000  1
  H  H820  1  0.22855000  0.09421000  0.51782000  1
  H  H821  1  0.10224000  0.02657000  0.36011000  1
  H  H822  1  0.08675000  0.00139000  0.29802000  1
  H  H823  1  0.14035000  0.96555000  0.27220000  1
  H  H824  1  0.83621000  0.54418000  0.25927000  1
  H  H825  1  0.07410000  0.65452000  0.20394000  1
  H  H826  1  0.87210000  0.49136000  0.28018000  1
  H  H827  1  0.93994000  0.46565000  0.17425000  1
  H  H828  1  0.92361000  0.40579000  0.13434000  1
  H  H829  1  0.83354000  0.47343000  0.07567000  1
  H  H830  1  0.79663000  0.49861000  0.08536000  1
  H  H831  1  0.80665000  0.53445000  0.17480000  1
  H  H832  1  0.24073000  0.78491000  0.57694000  1
  H  H833  1  0.29606000  0.95058000  0.87016000  1
  H  H834  1  0.21982000  0.71118000  0.59192000  1
  H  H835  1  0.32575000  0.79140000  0.76569000  1
  H  H836  1  0.36566000  0.77145000  0.78927000  1
  H  H837  1  0.42433000  0.89776000  0.75787000  1
  H  H838  1  0.41464000  0.91325000  0.71127000  1
  H  H839  1  0.32520000  0.85965000  0.63185000  1
  H  H840  1  0.20797000  0.16379000  0.92306000  1
  H  H841  1  0.08042000  0.92590000  0.62984000  1
  H  H842  1  0.11926000  0.12790000  0.90808000  1
  H  H843  1  0.02571000  0.06006000  0.73431000  1
  H  H844  1  0.98218000  0.07639000  0.71073000  1
  H  H845  1  0.13989000  0.16646000  0.74213000  1
  H  H846  1  0.20198000  0.20337000  0.78873000  1
  H  H847  1  0.22780000  0.19335000  0.86815000  1
  H  H848  1  0.29203000  0.71509000  0.45582000  1
  H  H849  1  0.41958000  0.54942000  0.34548000  1
  H  H850  1  0.38074000  0.78882000  0.50864000  1
  H  H851  1  0.47429000  0.70860000  0.53435000  1
  H  H852  1  0.51782000  0.72855000  0.59421000  1
  H  H853  1  0.36011000  0.60224000  0.52657000  1
  H  H854  1  0.29802000  0.58675000  0.50139000  1
  H  H855  1  0.27220000  0.64035000  0.46555000  1
  H  H856  1  0.25927000  0.33621000  0.04418000  1
  H  H857  1  0.20394000  0.57410000  0.15452000  1
  H  H858  1  0.28018000  0.37210000  0.99136000  1
  H  H859  1  0.17425000  0.43994000  0.96565000  1
  H  H860  1  0.13434000  0.42361000  0.90579000  1
  H  H861  1  0.07567000  0.33354000  0.97343000  1
  H  H862  1  0.08536000  0.29663000  0.99861000  1
  H  H863  1  0.17480000  0.30665000  0.03445000  1
  O  O864  1  0.13438000  0.51302000  0.49056000  1
  O  O865  1  0.15686000  0.59826000  0.54554000  1
  O  O866  1  0.25853000  0.63785000  0.55678000  1
  O  O867  1  0.08046000  0.51868000  0.54822000  1
  O  O868  1  0.09903000  0.43130000  0.51073000  1
  O  O869  1  0.08613000  0.45570000  0.59863000  1
  O  O870  1  0.36562000  0.35618000  0.87864000  1
  O  O871  1  0.34314000  0.38868000  0.94140000  1
  O  O872  1  0.24147000  0.29825000  0.87932000  1
  O  O873  1  0.41954000  0.46776000  0.93822000  1
  O  O874  1  0.40097000  0.41170000  0.83227000  1
  O  O875  1  0.41387000  0.51250000  0.86957000  1
  O  O876  1  0.47754000  0.98698000  0.62136000  1
  O  O877  1  0.44728000  0.90174000  0.55860000  1
  O  O878  1  0.41893000  0.86215000  0.62068000  1
  O  O879  1  0.52954000  0.98132000  0.56178000  1
  O  O880  1  0.57943000  0.06870000  0.66773000  1
  O  O881  1  0.64293000  0.04430000  0.63043000  1
  O  O882  1  0.02246000  0.14382000  0.00944000  1
  O  O883  1  0.05272000  0.11132000  0.95446000  1
  O  O884  1  0.08107000  0.20175000  0.94322000  1
  O  O885  1  0.97046000  0.03224000  0.95178000  1
  O  O886  1  0.92057000  0.08830000  0.98927000  1
  O  O887  1  0.85707000  0.98750000  0.90137000  1
  O  O888  1  0.64382000  0.50944000  0.02246000  1
  O  O889  1  0.61132000  0.45446000  0.05272000  1
  O  O890  1  0.70175000  0.44322000  0.08107000  1
  O  O891  1  0.53224000  0.45178000  0.97046000  1
  O  O892  1  0.58830000  0.48927000  0.92057000  1
  O  O893  1  0.48750000  0.40137000  0.85707000  1
  O  O894  1  0.48698000  0.12136000  0.47754000  1
  O  O895  1  0.40174000  0.05860000  0.44728000  1
  O  O896  1  0.36215000  0.12068000  0.41893000  1
  O  O897  1  0.48132000  0.06178000  0.52954000  1
  O  O898  1  0.56870000  0.16773000  0.57943000  1
  O  O899  1  0.54430000  0.13043000  0.64293000  1
  O  O900  1  0.85618000  0.37864000  0.36562000  1
  O  O901  1  0.88868000  0.44140000  0.34314000  1
  O  O902  1  0.79825000  0.37932000  0.24147000  1
  O  O903  1  0.96776000  0.43822000  0.41954000  1
  O  O904  1  0.91170000  0.33227000  0.40097000  1
  O  O905  1  0.01250000  0.36957000  0.41387000  1
  O  O906  1  0.01302000  0.99056000  0.13438000  1
  O  O907  1  0.09826000  0.04554000  0.15686000  1
  O  O908  1  0.13785000  0.05678000  0.25853000  1
  O  O909  1  0.01868000  0.04822000  0.08046000  1
  O  O910  1  0.93130000  0.01073000  0.09903000  1
  O  O911  1  0.95570000  0.09863000  0.08613000  1
  O  O912  1  0.62136000  0.97754000  0.48698000  1
  O  O913  1  0.55860000  0.94728000  0.40174000  1
  O  O914  1  0.62068000  0.91893000  0.36215000  1
  O  O915  1  0.56178000  0.02954000  0.48132000  1
  O  O916  1  0.66773000  0.07943000  0.56870000  1
  O  O917  1  0.63043000  0.14293000  0.54430000  1
  O  O918  1  0.00944000  0.52246000  0.64382000  1
  O  O919  1  0.95446000  0.55272000  0.61132000  1
  O  O920  1  0.94322000  0.58107000  0.70175000  1
  O  O921  1  0.95178000  0.47046000  0.53224000  1
  O  O922  1  0.98927000  0.42057000  0.58830000  1
  O  O923  1  0.90137000  0.35707000  0.48750000  1
  O  O924  1  0.49056000  0.63438000  0.01302000  1
  O  O925  1  0.54554000  0.65686000  0.09826000  1
  O  O926  1  0.55678000  0.75853000  0.13785000  1
  O  O927  1  0.54822000  0.58046000  0.01868000  1
  O  O928  1  0.51073000  0.59903000  0.93130000  1
  O  O929  1  0.59863000  0.58613000  0.95570000  1
  O  O930  1  0.87864000  0.86562000  0.85618000  1
  O  O931  1  0.94140000  0.84314000  0.88868000  1
  O  O932  1  0.87932000  0.74147000  0.79825000  1
  O  O933  1  0.93822000  0.91954000  0.96776000  1
  O  O934  1  0.83227000  0.90097000  0.91170000  1
  O  O935  1  0.86957000  0.91387000  0.01250000  1
  O  O936  1  0.13438000  0.12136000  0.64382000  1
  O  O937  1  0.15686000  0.05860000  0.61132000  1
  O  O938  1  0.25853000  0.12068000  0.70175000  1
  O  O939  1  0.08046000  0.06178000  0.53224000  1
  O  O940  1  0.09903000  0.16773000  0.58830000  1
  O  O941  1  0.08613000  0.13043000  0.48750000  1
  O  O942  1  0.36562000  0.50944000  0.48698000  1
  O  O943  1  0.34314000  0.45446000  0.40174000  1
  O  O944  1  0.24147000  0.44322000  0.36215000  1
  O  O945  1  0.41954000  0.45178000  0.48132000  1
  O  O946  1  0.40097000  0.48927000  0.56870000  1
  O  O947  1  0.41387000  0.40137000  0.54430000  1
  O  O948  1  0.47754000  0.99056000  0.85618000  1
  O  O949  1  0.44728000  0.04554000  0.88868000  1
  O  O950  1  0.41893000  0.05678000  0.79825000  1
  O  O951  1  0.52954000  0.04822000  0.96776000  1
  O  O952  1  0.57943000  0.01073000  0.91170000  1
  O  O953  1  0.64293000  0.09863000  0.01250000  1
  O  O954  1  0.02246000  0.37864000  0.01302000  1
  O  O955  1  0.05272000  0.44140000  0.09826000  1
  O  O956  1  0.08107000  0.37932000  0.13785000  1
  O  O957  1  0.97046000  0.43822000  0.01868000  1
  O  O958  1  0.92057000  0.33227000  0.93130000  1
  O  O959  1  0.85707000  0.36957000  0.95570000  1
  O  O960  1  0.64382000  0.63438000  0.62136000  1
  O  O961  1  0.61132000  0.65686000  0.55860000  1
  O  O962  1  0.70175000  0.75853000  0.62068000  1
  O  O963  1  0.53224000  0.58046000  0.56178000  1
  O  O964  1  0.58830000  0.59903000  0.66773000  1
  O  O965  1  0.48750000  0.58613000  0.63043000  1
  O  O966  1  0.48698000  0.86562000  0.00944000  1
  O  O967  1  0.40174000  0.84314000  0.95446000  1
  O  O968  1  0.36215000  0.74147000  0.94322000  1
  O  O969  1  0.48132000  0.91954000  0.95178000  1
  O  O970  1  0.56870000  0.90097000  0.98927000  1
  O  O971  1  0.54430000  0.91387000  0.90137000  1
  O  O972  1  0.85618000  0.97754000  0.49056000  1
  O  O973  1  0.88868000  0.94728000  0.54554000  1
  O  O974  1  0.79825000  0.91893000  0.55678000  1
  O  O975  1  0.96776000  0.02954000  0.54822000  1
  O  O976  1  0.91170000  0.07943000  0.51073000  1
  O  O977  1  0.01250000  0.14293000  0.59863000  1
  O  O978  1  0.01302000  0.52246000  0.87864000  1
  O  O979  1  0.09826000  0.55272000  0.94140000  1
  O  O980  1  0.13785000  0.58107000  0.87932000  1
  O  O981  1  0.01868000  0.47046000  0.93822000  1
  O  O982  1  0.93130000  0.42057000  0.83227000  1
  O  O983  1  0.95570000  0.35707000  0.86957000  1
  O  O984  1  0.62136000  0.14382000  0.13438000  1
  O  O985  1  0.55860000  0.11132000  0.15686000  1
  O  O986  1  0.62068000  0.20175000  0.25853000  1
  O  O987  1  0.56178000  0.03224000  0.08046000  1
  O  O988  1  0.66773000  0.08830000  0.09903000  1
  O  O989  1  0.63043000  0.98750000  0.08613000  1
  O  O990  1  0.00944000  0.98698000  0.36562000  1
  O  O991  1  0.95446000  0.90174000  0.34314000  1
  O  O992  1  0.94322000  0.86215000  0.24147000  1
  O  O993  1  0.95178000  0.98132000  0.41954000  1
  O  O994  1  0.98927000  0.06870000  0.40097000  1
  O  O995  1  0.90137000  0.04430000  0.41387000  1
  O  O996  1  0.49056000  0.35618000  0.47754000  1
  O  O997  1  0.54554000  0.38868000  0.44728000  1
  O  O998  1  0.55678000  0.29825000  0.41893000  1
  O  O999  1  0.54822000  0.46776000  0.52954000  1
  O  O1000  1  0.51073000  0.41170000  0.57943000  1
  O  O1001  1  0.59863000  0.51250000  0.64293000  1
  O  O1002  1  0.87864000  0.51302000  0.02246000  1
  O  O1003  1  0.94140000  0.59826000  0.05272000  1
  O  O1004  1  0.87932000  0.63785000  0.08107000  1
  O  O1005  1  0.93822000  0.51868000  0.97046000  1
  O  O1006  1  0.83227000  0.43130000  0.92057000  1
  O  O1007  1  0.86957000  0.45570000  0.85707000  1
  O  O1008  1  0.86562000  0.48698000  0.50944000  1
  O  O1009  1  0.84314000  0.40174000  0.45446000  1
  O  O1010  1  0.74147000  0.36215000  0.44322000  1
  O  O1011  1  0.91954000  0.48132000  0.45178000  1
  O  O1012  1  0.90097000  0.56870000  0.48927000  1
  O  O1013  1  0.91387000  0.54430000  0.40137000  1
  O  O1014  1  0.63438000  0.64382000  0.12136000  1
  O  O1015  1  0.65686000  0.61132000  0.05860000  1
  O  O1016  1  0.75853000  0.70175000  0.12068000  1
  O  O1017  1  0.58046000  0.53224000  0.06178000  1
  O  O1018  1  0.59903000  0.58830000  0.16773000  1
  O  O1019  1  0.58613000  0.48750000  0.13043000  1
  O  O1020  1  0.52246000  0.01302000  0.37864000  1
  O  O1021  1  0.55272000  0.09826000  0.44140000  1
  O  O1022  1  0.58107000  0.13785000  0.37932000  1
  O  O1023  1  0.47046000  0.01868000  0.43822000  1
  O  O1024  1  0.42057000  0.93130000  0.33227000  1
  O  O1025  1  0.35707000  0.95570000  0.36957000  1
  O  O1026  1  0.97754000  0.85618000  0.99056000  1
  O  O1027  1  0.94728000  0.88868000  0.04554000  1
  O  O1028  1  0.91893000  0.79825000  0.05678000  1
  O  O1029  1  0.02954000  0.96776000  0.04822000  1
  O  O1030  1  0.07943000  0.91170000  0.01073000  1
  O  O1031  1  0.14293000  0.01250000  0.09863000  1
  O  O1032  1  0.35618000  0.49056000  0.97754000  1
  O  O1033  1  0.38868000  0.54554000  0.94728000  1
  O  O1034  1  0.29825000  0.55678000  0.91893000  1
  O  O1035  1  0.46776000  0.54822000  0.02954000  1
  O  O1036  1  0.41170000  0.51073000  0.07943000  1
  O  O1037  1  0.51250000  0.59863000  0.14293000  1
  O  O1038  1  0.51302000  0.87864000  0.52246000  1
  O  O1039  1  0.59826000  0.94140000  0.55272000  1
  O  O1040  1  0.63785000  0.87932000  0.58107000  1
  O  O1041  1  0.51868000  0.93822000  0.47046000  1
  O  O1042  1  0.43130000  0.83227000  0.42057000  1
  O  O1043  1  0.45570000  0.86957000  0.35707000  1
  O  O1044  1  0.14382000  0.62136000  0.63438000  1
  O  O1045  1  0.11132000  0.55860000  0.65686000  1
  O  O1046  1  0.20175000  0.62068000  0.75853000  1
  O  O1047  1  0.03224000  0.56178000  0.58046000  1
  O  O1048  1  0.08830000  0.66773000  0.59903000  1
  O  O1049  1  0.98750000  0.63043000  0.58613000  1
  O  O1050  1  0.98698000  0.00944000  0.86562000  1
  O  O1051  1  0.90174000  0.95446000  0.84314000  1
  O  O1052  1  0.86215000  0.94322000  0.74147000  1
  O  O1053  1  0.98132000  0.95178000  0.91954000  1
  O  O1054  1  0.06870000  0.98927000  0.90097000  1
  O  O1055  1  0.04430000  0.90137000  0.91387000  1
  O  O1056  1  0.37864000  0.02246000  0.51302000  1
  O  O1057  1  0.44140000  0.05272000  0.59826000  1
  O  O1058  1  0.37932000  0.08107000  0.63785000  1
  O  O1059  1  0.43822000  0.97046000  0.51868000  1
  O  O1060  1  0.33227000  0.92057000  0.43130000  1
  O  O1061  1  0.36957000  0.85707000  0.45570000  1
  O  O1062  1  0.99056000  0.47754000  0.35618000  1
  O  O1063  1  0.04554000  0.44728000  0.38868000  1
  O  O1064  1  0.05678000  0.41893000  0.29825000  1
  O  O1065  1  0.04822000  0.52954000  0.46776000  1
  O  O1066  1  0.01073000  0.57943000  0.41170000  1
  O  O1067  1  0.09863000  0.64293000  0.51250000  1
  O  O1068  1  0.50944000  0.36562000  0.98698000  1
  O  O1069  1  0.45446000  0.34314000  0.90174000  1
  O  O1070  1  0.44322000  0.24147000  0.86215000  1
  O  O1071  1  0.45178000  0.41954000  0.98132000  1
  O  O1072  1  0.48927000  0.40097000  0.06870000  1
  O  O1073  1  0.40137000  0.41387000  0.04430000  1
  O  O1074  1  0.12136000  0.13438000  0.14382000  1
  O  O1075  1  0.05860000  0.15686000  0.11132000  1
  O  O1076  1  0.12068000  0.25853000  0.20175000  1
  O  O1077  1  0.06178000  0.08046000  0.03224000  1
  O  O1078  1  0.16773000  0.09903000  0.08830000  1
  O  O1079  1  0.13043000  0.08613000  0.98750000  1
  O  O1080  1  0.86562000  0.87864000  0.35618000  1
  O  O1081  1  0.84314000  0.94140000  0.38868000  1
  O  O1082  1  0.74147000  0.87932000  0.29825000  1
  O  O1083  1  0.91954000  0.93822000  0.46776000  1
  O  O1084  1  0.90097000  0.83227000  0.41170000  1
  O  O1085  1  0.91387000  0.86957000  0.51250000  1
  O  O1086  1  0.63438000  0.49056000  0.51302000  1
  O  O1087  1  0.65686000  0.54554000  0.59826000  1
  O  O1088  1  0.75853000  0.55678000  0.63785000  1
  O  O1089  1  0.58046000  0.54822000  0.51868000  1
  O  O1090  1  0.59903000  0.51073000  0.43130000  1
  O  O1091  1  0.58613000  0.59863000  0.45570000  1
  O  O1092  1  0.52246000  0.00944000  0.14382000  1
  O  O1093  1  0.55272000  0.95446000  0.11132000  1
  O  O1094  1  0.58107000  0.94322000  0.20175000  1
  O  O1095  1  0.47046000  0.95178000  0.03224000  1
  O  O1096  1  0.42057000  0.98927000  0.08830000  1
  O  O1097  1  0.35707000  0.90137000  0.98750000  1
  O  O1098  1  0.97754000  0.62136000  0.98698000  1
  O  O1099  1  0.94728000  0.55860000  0.90174000  1
  O  O1100  1  0.91893000  0.62068000  0.86215000  1
  O  O1101  1  0.02954000  0.56178000  0.98132000  1
  O  O1102  1  0.07943000  0.66773000  0.06870000  1
  O  O1103  1  0.14293000  0.63043000  0.04430000  1
  O  O1104  1  0.35618000  0.36562000  0.37864000  1
  O  O1105  1  0.38868000  0.34314000  0.44140000  1
  O  O1106  1  0.29825000  0.24147000  0.37932000  1
  O  O1107  1  0.46776000  0.41954000  0.43822000  1
  O  O1108  1  0.41170000  0.40097000  0.33227000  1
  O  O1109  1  0.51250000  0.41387000  0.36957000  1
  O  O1110  1  0.51302000  0.13438000  0.99056000  1
  O  O1111  1  0.59826000  0.15686000  0.04554000  1
  O  O1112  1  0.63785000  0.25853000  0.05678000  1
  O  O1113  1  0.51868000  0.08046000  0.04822000  1
  O  O1114  1  0.43130000  0.09903000  0.01073000  1
  O  O1115  1  0.45570000  0.08613000  0.09863000  1
  O  O1116  1  0.14382000  0.02246000  0.50944000  1
  O  O1117  1  0.11132000  0.05272000  0.45446000  1
  O  O1118  1  0.20175000  0.08107000  0.44322000  1
  O  O1119  1  0.03224000  0.97046000  0.45178000  1
  O  O1120  1  0.08830000  0.92057000  0.48927000  1
  O  O1121  1  0.98750000  0.85707000  0.40137000  1
  O  O1122  1  0.98698000  0.47754000  0.12136000  1
  O  O1123  1  0.90174000  0.44728000  0.05860000  1
  O  O1124  1  0.86215000  0.41893000  0.12068000  1
  O  O1125  1  0.98132000  0.52954000  0.06178000  1
  O  O1126  1  0.06870000  0.57943000  0.16773000  1
  O  O1127  1  0.04430000  0.64293000  0.13043000  1
  O  O1128  1  0.37864000  0.85618000  0.86562000  1
  O  O1129  1  0.44140000  0.88868000  0.84314000  1
  O  O1130  1  0.37932000  0.79825000  0.74147000  1
  O  O1131  1  0.43822000  0.96776000  0.91954000  1
  O  O1132  1  0.33227000  0.91170000  0.90097000  1
  O  O1133  1  0.36957000  0.01250000  0.91387000  1
  O  O1134  1  0.99056000  0.01302000  0.63438000  1
  O  O1135  1  0.04554000  0.09826000  0.65686000  1
  O  O1136  1  0.05678000  0.13785000  0.75853000  1
  O  O1137  1  0.04822000  0.01868000  0.58046000  1
  O  O1138  1  0.01073000  0.93130000  0.59903000  1
  O  O1139  1  0.09863000  0.95570000  0.58613000  1
  O  O1140  1  0.50944000  0.64382000  0.52246000  1
  O  O1141  1  0.45446000  0.61132000  0.55272000  1
  O  O1142  1  0.44322000  0.70175000  0.58107000  1
  O  O1143  1  0.45178000  0.53224000  0.47046000  1
  O  O1144  1  0.48927000  0.58830000  0.42057000  1
  O  O1145  1  0.40137000  0.48750000  0.35707000  1
  O  O1146  1  0.12136000  0.48698000  0.97754000  1
  O  O1147  1  0.05860000  0.40174000  0.94728000  1
  O  O1148  1  0.12068000  0.36215000  0.91893000  1
  O  O1149  1  0.06178000  0.48132000  0.02954000  1
  O  O1150  1  0.16773000  0.56870000  0.07943000  1
  O  O1151  1  0.13043000  0.54430000  0.14293000  1
  O  O1152  1  0.00000000  0.42720000  0.50000000  1
  O  O1153  1  0.50000000  0.50000000  0.92720000  1
  O  O1154  1  0.57280000  0.07280000  0.57280000  1
  O  O1155  1  0.92720000  0.00000000  1.00000000  1
  O  O1156  1  0.00000000  0.07280000  0.50000000  1
  O  O1157  1  0.50000000  0.50000000  0.57280000  1
  O  O1158  1  0.57280000  0.00000000  1.00000000  1
  O  O1159  1  0.92720000  0.42720000  0.92720000  1
  O  O1160  1  0.00000000  0.57280000  0.50000000  1
  O  O1161  1  0.50000000  0.50000000  0.07280000  1
  O  O1162  1  0.42720000  0.92720000  0.42720000  1
  O  O1163  1  0.07280000  0.00000000  1.00000000  1
  O  O1164  1  0.00000000  0.92720000  0.50000000  1
  O  O1165  1  0.50000000  0.50000000  0.42720000  1
  O  O1166  1  0.42720000  0.00000000  1.00000000  1
  O  O1167  1  0.07280000  0.57280000  0.07280000  1
  Zr  Zr1168  1  0.04943000  0.45825000  0.46726000  1
  Zr  Zr1169  1  0.45057000  0.41783000  0.90882000  1
  Zr  Zr1170  1  0.50901000  0.04175000  0.59118000  1
  Zr  Zr1171  1  0.99099000  0.08217000  0.03274000  1
  Zr  Zr1172  1  0.58217000  0.53274000  0.99099000  1
  Zr  Zr1173  1  0.54175000  0.09118000  0.50901000  1
  Zr  Zr1174  1  0.91783000  0.40882000  0.45057000  1
  Zr  Zr1175  1  0.95825000  0.96726000  0.04943000  1
  Zr  Zr1176  1  0.59118000  0.00901000  0.54175000  1
  Zr  Zr1177  1  0.03274000  0.49099000  0.58217000  1
  Zr  Zr1178  1  0.46726000  0.54943000  0.95825000  1
  Zr  Zr1179  1  0.90882000  0.95057000  0.91783000  1
  Zr  Zr1180  1  0.04943000  0.09118000  0.58217000  1
  Zr  Zr1181  1  0.45057000  0.53274000  0.54175000  1
  Zr  Zr1182  1  0.50901000  0.96726000  0.91783000  1
  Zr  Zr1183  1  0.99099000  0.40882000  0.95825000  1
  Zr  Zr1184  1  0.58217000  0.54943000  0.59118000  1
  Zr  Zr1185  1  0.54175000  0.95057000  0.03274000  1
  Zr  Zr1186  1  0.91783000  0.00901000  0.46726000  1
  Zr  Zr1187  1  0.95825000  0.49099000  0.90882000  1
  Zr  Zr1188  1  0.59118000  0.08217000  0.04943000  1
  Zr  Zr1189  1  0.03274000  0.04175000  0.45057000  1
  Zr  Zr1190  1  0.46726000  0.41783000  0.50901000  1
  Zr  Zr1191  1  0.90882000  0.45825000  0.99099000  1
  Zr  Zr1192  1  0.95057000  0.54175000  0.53274000  1
  Zr  Zr1193  1  0.54943000  0.58217000  0.09118000  1
  Zr  Zr1194  1  0.49099000  0.95825000  0.40882000  1
  Zr  Zr1195  1  0.00901000  0.91783000  0.96726000  1
  Zr  Zr1196  1  0.41783000  0.46726000  0.00901000  1
  Zr  Zr1197  1  0.45825000  0.90882000  0.49099000  1
  Zr  Zr1198  1  0.08217000  0.59118000  0.54943000  1
  Zr  Zr1199  1  0.04175000  0.03274000  0.95057000  1
  Zr  Zr1200  1  0.40882000  0.99099000  0.45825000  1
  Zr  Zr1201  1  0.96726000  0.50901000  0.41783000  1
  Zr  Zr1202  1  0.53274000  0.45057000  0.04175000  1
  Zr  Zr1203  1  0.09118000  0.04943000  0.08217000  1
  Zr  Zr1204  1  0.95057000  0.90882000  0.41783000  1
  Zr  Zr1205  1  0.54943000  0.46726000  0.45825000  1
  Zr  Zr1206  1  0.49099000  0.03274000  0.08217000  1
  Zr  Zr1207  1  0.00901000  0.59118000  0.04175000  1
  Zr  Zr1208  1  0.41783000  0.45057000  0.40882000  1
  Zr  Zr1209  1  0.45825000  0.04943000  0.96726000  1
  Zr  Zr1210  1  0.08217000  0.99099000  0.53274000  1
  Zr  Zr1211  1  0.04175000  0.50901000  0.09118000  1
  Zr  Zr1212  1  0.40882000  0.91783000  0.95057000  1
  Zr  Zr1213  1  0.96726000  0.95825000  0.54943000  1
  Zr  Zr1214  1  0.53274000  0.58217000  0.49099000  1
  Zr  Zr1215  1  0.09118000  0.54175000  0.00901000  1
