# generated using pymatgen
data_Zr3H32(C33O8)2
_symmetry_space_group_name_H-M   'P 1'
_cell_length_a   40.56100000
_cell_length_b   40.56100000
_cell_length_c   40.56100000
_cell_angle_alpha   90.00000000
_cell_angle_beta   90.00000000
_cell_angle_gamma   90.00000000
_symmetry_Int_Tables_number   1
_chemical_formula_structural   Zr3H32(C33O8)2
_chemical_formula_sum   'Zr36 H384 C792 O192'
_cell_volume   66730.74307848
_cell_formula_units_Z   12
loop_
 _symmetry_equiv_pos_site_id
 _symmetry_equiv_pos_as_xyz
  1  'x, y, z'
loop_
 _atom_site_type_symbol
 _atom_site_label
 _atom_site_symmetry_multiplicity
 _atom_site_fract_x
 _atom_site_fract_y
 _atom_site_fract_z
 _atom_site_occupancy
  Zr  Zr0  1  0.04320000  0.75000000  0.45680000  1
  Zr  Zr1  1  0.95680000  0.25000000  0.45680000  1
  Zr  Zr2  1  0.95680000  0.75000000  0.54320000  1
  Zr  Zr3  1  0.04320000  0.25000000  0.54320000  1
  Zr  Zr4  1  0.45680000  0.04320000  0.75000000  1
  Zr  Zr5  1  0.45680000  0.95680000  0.25000000  1
  Zr  Zr6  1  0.54320000  0.95680000  0.75000000  1
  Zr  Zr7  1  0.54320000  0.04320000  0.25000000  1
  Zr  Zr8  1  0.75000000  0.45680000  0.04320000  1
  Zr  Zr9  1  0.25000000  0.45680000  0.95680000  1
  Zr  Zr10  1  0.75000000  0.54320000  0.95680000  1
  Zr  Zr11  1  0.25000000  0.54320000  0.04320000  1
  Zr  Zr12  1  0.95680000  0.25000000  0.54320000  1
  Zr  Zr13  1  0.04320000  0.75000000  0.54320000  1
  Zr  Zr14  1  0.04320000  0.25000000  0.45680000  1
  Zr  Zr15  1  0.95680000  0.75000000  0.45680000  1
  Zr  Zr16  1  0.54320000  0.95680000  0.25000000  1
  Zr  Zr17  1  0.54320000  0.04320000  0.75000000  1
  Zr  Zr18  1  0.45680000  0.04320000  0.25000000  1
  Zr  Zr19  1  0.45680000  0.95680000  0.75000000  1
  Zr  Zr20  1  0.25000000  0.54320000  0.95680000  1
  Zr  Zr21  1  0.75000000  0.54320000  0.04320000  1
  Zr  Zr22  1  0.25000000  0.45680000  0.04320000  1
  Zr  Zr23  1  0.75000000  0.45680000  0.95680000  1
  Zr  Zr24  1  0.00000000  0.68860000  0.50000000  1
  Zr  Zr25  1  0.00000000  0.31140000  0.50000000  1
  Zr  Zr26  1  0.50000000  0.00000000  0.68860000  1
  Zr  Zr27  1  0.50000000  0.00000000  0.31140000  1
  Zr  Zr28  1  0.68860000  0.50000000  0.00000000  1
  Zr  Zr29  1  0.31140000  0.50000000  0.00000000  1
  Zr  Zr30  1  0.18860000  0.50000000  0.00000000  1
  Zr  Zr31  1  0.81140000  0.50000000  0.00000000  1
  Zr  Zr32  1  0.50000000  0.00000000  0.81140000  1
  Zr  Zr33  1  0.50000000  0.00000000  0.18860000  1
  Zr  Zr34  1  0.00000000  0.18860000  0.50000000  1
  Zr  Zr35  1  0.00000000  0.81140000  0.50000000  1
  H  H36  1  0.16723000  0.55136000  0.29576000  1
  H  H37  1  0.08137000  0.57105000  0.41763000  1
  H  H38  1  0.12262000  0.64675000  0.36711000  1
  H  H39  1  0.09333000  0.68438000  0.39958000  1
  H  H40  1  0.05208000  0.60868000  0.45010000  1
  H  H41  1  0.22489000  0.54922000  0.20439000  1
  H  H42  1  0.23905000  0.54821000  0.14812000  1
  H  H43  1  0.83277000  0.44864000  0.29576000  1
  H  H44  1  0.91863000  0.42895000  0.41763000  1
  H  H45  1  0.87738000  0.35325000  0.36711000  1
  H  H46  1  0.90667000  0.31562000  0.39958000  1
  H  H47  1  0.94792000  0.39132000  0.45010000  1
  H  H48  1  0.77511000  0.45078000  0.20439000  1
  H  H49  1  0.76095000  0.45179000  0.14812000  1
  H  H50  1  0.83277000  0.55136000  0.70424000  1
  H  H51  1  0.91863000  0.57105000  0.58237000  1
  H  H52  1  0.87738000  0.64675000  0.63289000  1
  H  H53  1  0.90667000  0.68438000  0.60042000  1
  H  H54  1  0.94792000  0.60868000  0.54990000  1
  H  H55  1  0.77511000  0.54922000  0.79561000  1
  H  H56  1  0.76095000  0.54821000  0.85188000  1
  H  H57  1  0.16723000  0.44864000  0.70424000  1
  H  H58  1  0.08137000  0.42895000  0.58237000  1
  H  H59  1  0.12262000  0.35325000  0.63289000  1
  H  H60  1  0.09333000  0.31562000  0.60042000  1
  H  H61  1  0.05208000  0.39132000  0.54990000  1
  H  H62  1  0.22489000  0.45078000  0.79561000  1
  H  H63  1  0.23905000  0.45179000  0.85188000  1
  H  H64  1  0.29576000  0.16723000  0.55136000  1
  H  H65  1  0.41763000  0.08137000  0.57105000  1
  H  H66  1  0.36711000  0.12262000  0.64675000  1
  H  H67  1  0.39958000  0.09333000  0.68438000  1
  H  H68  1  0.45010000  0.05208000  0.60868000  1
  H  H69  1  0.20439000  0.22489000  0.54922000  1
  H  H70  1  0.14812000  0.23905000  0.54821000  1
  H  H71  1  0.29576000  0.83277000  0.44864000  1
  H  H72  1  0.41763000  0.91863000  0.42895000  1
  H  H73  1  0.36711000  0.87738000  0.35325000  1
  H  H74  1  0.39958000  0.90667000  0.31562000  1
  H  H75  1  0.45010000  0.94792000  0.39132000  1
  H  H76  1  0.20439000  0.77511000  0.45078000  1
  H  H77  1  0.14812000  0.76095000  0.45179000  1
  H  H78  1  0.70424000  0.83277000  0.55136000  1
  H  H79  1  0.58237000  0.91863000  0.57105000  1
  H  H80  1  0.63289000  0.87738000  0.64675000  1
  H  H81  1  0.60042000  0.90667000  0.68438000  1
  H  H82  1  0.54990000  0.94792000  0.60868000  1
  H  H83  1  0.79561000  0.77511000  0.54922000  1
  H  H84  1  0.85188000  0.76095000  0.54821000  1
  H  H85  1  0.70424000  0.16723000  0.44864000  1
  H  H86  1  0.58237000  0.08137000  0.42895000  1
  H  H87  1  0.63289000  0.12262000  0.35325000  1
  H  H88  1  0.60042000  0.09333000  0.31562000  1
  H  H89  1  0.54990000  0.05208000  0.39132000  1
  H  H90  1  0.79561000  0.22489000  0.45078000  1
  H  H91  1  0.85188000  0.23905000  0.45179000  1
  H  H92  1  0.55136000  0.29576000  0.16723000  1
  H  H93  1  0.57105000  0.41763000  0.08137000  1
  H  H94  1  0.64675000  0.36711000  0.12262000  1
  H  H95  1  0.68438000  0.39958000  0.09333000  1
  H  H96  1  0.60868000  0.45010000  0.05208000  1
  H  H97  1  0.54922000  0.20439000  0.22489000  1
  H  H98  1  0.54821000  0.14812000  0.23905000  1
  H  H99  1  0.44864000  0.29576000  0.83277000  1
  H  H100  1  0.42895000  0.41763000  0.91863000  1
  H  H101  1  0.35325000  0.36711000  0.87738000  1
  H  H102  1  0.31562000  0.39958000  0.90667000  1
  H  H103  1  0.39132000  0.45010000  0.94792000  1
  H  H104  1  0.45078000  0.20439000  0.77511000  1
  H  H105  1  0.45179000  0.14812000  0.76095000  1
  H  H106  1  0.55136000  0.70424000  0.83277000  1
  H  H107  1  0.57105000  0.58237000  0.91863000  1
  H  H108  1  0.64675000  0.63289000  0.87738000  1
  H  H109  1  0.68438000  0.60042000  0.90667000  1
  H  H110  1  0.60868000  0.54990000  0.94792000  1
  H  H111  1  0.54922000  0.79561000  0.77511000  1
  H  H112  1  0.54821000  0.85188000  0.76095000  1
  H  H113  1  0.44864000  0.70424000  0.16723000  1
  H  H114  1  0.42895000  0.58237000  0.08137000  1
  H  H115  1  0.35325000  0.63289000  0.12262000  1
  H  H116  1  0.31562000  0.60042000  0.09333000  1
  H  H117  1  0.39132000  0.54990000  0.05208000  1
  H  H118  1  0.45078000  0.79561000  0.22489000  1
  H  H119  1  0.45179000  0.85188000  0.23905000  1
  H  H120  1  0.05136000  0.66723000  0.20424000  1
  H  H121  1  0.07105000  0.58137000  0.08237000  1
  H  H122  1  0.14675000  0.62262000  0.13289000  1
  H  H123  1  0.18438000  0.59333000  0.10042000  1
  H  H124  1  0.10868000  0.55208000  0.04990000  1
  H  H125  1  0.04922000  0.72489000  0.29561000  1
  H  H126  1  0.04821000  0.73905000  0.35188000  1
  H  H127  1  0.94864000  0.33277000  0.20424000  1
  H  H128  1  0.92895000  0.41863000  0.08237000  1
  H  H129  1  0.85325000  0.37738000  0.13289000  1
  H  H130  1  0.81562000  0.40667000  0.10042000  1
  H  H131  1  0.89132000  0.44792000  0.04990000  1
  H  H132  1  0.95078000  0.27511000  0.29561000  1
  H  H133  1  0.95179000  0.26095000  0.35188000  1
  H  H134  1  0.05136000  0.33277000  0.79576000  1
  H  H135  1  0.07105000  0.41863000  0.91763000  1
  H  H136  1  0.14675000  0.37738000  0.86711000  1
  H  H137  1  0.18438000  0.40667000  0.89958000  1
  H  H138  1  0.10868000  0.44792000  0.95010000  1
  H  H139  1  0.04922000  0.27511000  0.70439000  1
  H  H140  1  0.04821000  0.26095000  0.64812000  1
  H  H141  1  0.94864000  0.66723000  0.79576000  1
  H  H142  1  0.92895000  0.58137000  0.91763000  1
  H  H143  1  0.85325000  0.62262000  0.86711000  1
  H  H144  1  0.81562000  0.59333000  0.89958000  1
  H  H145  1  0.89132000  0.55208000  0.95010000  1
  H  H146  1  0.95078000  0.72489000  0.70439000  1
  H  H147  1  0.95179000  0.73905000  0.64812000  1
  H  H148  1  0.66723000  0.79576000  0.94864000  1
  H  H149  1  0.58137000  0.91763000  0.92895000  1
  H  H150  1  0.62262000  0.86711000  0.85325000  1
  H  H151  1  0.59333000  0.89958000  0.81562000  1
  H  H152  1  0.55208000  0.95010000  0.89132000  1
  H  H153  1  0.72489000  0.70439000  0.95078000  1
  H  H154  1  0.73905000  0.64812000  0.95179000  1
  H  H155  1  0.33277000  0.79576000  0.05136000  1
  H  H156  1  0.41863000  0.91763000  0.07105000  1
  H  H157  1  0.37738000  0.86711000  0.14675000  1
  H  H158  1  0.40667000  0.89958000  0.18438000  1
  H  H159  1  0.44792000  0.95010000  0.10868000  1
  H  H160  1  0.27511000  0.70439000  0.04922000  1
  H  H161  1  0.26095000  0.64812000  0.04821000  1
  H  H162  1  0.33277000  0.20424000  0.94864000  1
  H  H163  1  0.41863000  0.08237000  0.92895000  1
  H  H164  1  0.37738000  0.13289000  0.85325000  1
  H  H165  1  0.40667000  0.10042000  0.81562000  1
  H  H166  1  0.44792000  0.04990000  0.89132000  1
  H  H167  1  0.27511000  0.29561000  0.95078000  1
  H  H168  1  0.26095000  0.35188000  0.95179000  1
  H  H169  1  0.66723000  0.20424000  0.05136000  1
  H  H170  1  0.58137000  0.08237000  0.07105000  1
  H  H171  1  0.62262000  0.13289000  0.14675000  1
  H  H172  1  0.59333000  0.10042000  0.18438000  1
  H  H173  1  0.55208000  0.04990000  0.10868000  1
  H  H174  1  0.72489000  0.29561000  0.04922000  1
  H  H175  1  0.73905000  0.35188000  0.04821000  1
  H  H176  1  0.79576000  0.05136000  0.33277000  1
  H  H177  1  0.91763000  0.07105000  0.41863000  1
  H  H178  1  0.86711000  0.14675000  0.37738000  1
  H  H179  1  0.89958000  0.18438000  0.40667000  1
  H  H180  1  0.95010000  0.10868000  0.44792000  1
  H  H181  1  0.70439000  0.04922000  0.27511000  1
  H  H182  1  0.64812000  0.04821000  0.26095000  1
  H  H183  1  0.79576000  0.94864000  0.66723000  1
  H  H184  1  0.91763000  0.92895000  0.58137000  1
  H  H185  1  0.86711000  0.85325000  0.62262000  1
  H  H186  1  0.89958000  0.81562000  0.59333000  1
  H  H187  1  0.95010000  0.89132000  0.55208000  1
  H  H188  1  0.70439000  0.95078000  0.72489000  1
  H  H189  1  0.64812000  0.95179000  0.73905000  1
  H  H190  1  0.20424000  0.05136000  0.66723000  1
  H  H191  1  0.08237000  0.07105000  0.58137000  1
  H  H192  1  0.13289000  0.14675000  0.62262000  1
  H  H193  1  0.10042000  0.18438000  0.59333000  1
  H  H194  1  0.04990000  0.10868000  0.55208000  1
  H  H195  1  0.29561000  0.04922000  0.72489000  1
  H  H196  1  0.35188000  0.04821000  0.73905000  1
  H  H197  1  0.20424000  0.94864000  0.33277000  1
  H  H198  1  0.08237000  0.92895000  0.41863000  1
  H  H199  1  0.13289000  0.85325000  0.37738000  1
  H  H200  1  0.10042000  0.81562000  0.40667000  1
  H  H201  1  0.04990000  0.89132000  0.44792000  1
  H  H202  1  0.29561000  0.95078000  0.27511000  1
  H  H203  1  0.35188000  0.95179000  0.26095000  1
  H  H204  1  0.83277000  0.44864000  0.70424000  1
  H  H205  1  0.91863000  0.42895000  0.58237000  1
  H  H206  1  0.87738000  0.35325000  0.63289000  1
  H  H207  1  0.90667000  0.31562000  0.60042000  1
  H  H208  1  0.94792000  0.39132000  0.54990000  1
  H  H209  1  0.77511000  0.45078000  0.79561000  1
  H  H210  1  0.76095000  0.45179000  0.85188000  1
  H  H211  1  0.16723000  0.55136000  0.70424000  1
  H  H212  1  0.08137000  0.57105000  0.58237000  1
  H  H213  1  0.12262000  0.64675000  0.63289000  1
  H  H214  1  0.09333000  0.68438000  0.60042000  1
  H  H215  1  0.05208000  0.60868000  0.54990000  1
  H  H216  1  0.22489000  0.54922000  0.79561000  1
  H  H217  1  0.23905000  0.54821000  0.85188000  1
  H  H218  1  0.16723000  0.44864000  0.29576000  1
  H  H219  1  0.08137000  0.42895000  0.41763000  1
  H  H220  1  0.12262000  0.35325000  0.36711000  1
  H  H221  1  0.09333000  0.31562000  0.39958000  1
  H  H222  1  0.05208000  0.39132000  0.45010000  1
  H  H223  1  0.22489000  0.45078000  0.20439000  1
  H  H224  1  0.23905000  0.45179000  0.14812000  1
  H  H225  1  0.83277000  0.55136000  0.29576000  1
  H  H226  1  0.91863000  0.57105000  0.41763000  1
  H  H227  1  0.87738000  0.64675000  0.36711000  1
  H  H228  1  0.90667000  0.68438000  0.39958000  1
  H  H229  1  0.94792000  0.60868000  0.45010000  1
  H  H230  1  0.77511000  0.54922000  0.20439000  1
  H  H231  1  0.76095000  0.54821000  0.14812000  1
  H  H232  1  0.70424000  0.83277000  0.44864000  1
  H  H233  1  0.58237000  0.91863000  0.42895000  1
  H  H234  1  0.63289000  0.87738000  0.35325000  1
  H  H235  1  0.60042000  0.90667000  0.31562000  1
  H  H236  1  0.54990000  0.94792000  0.39132000  1
  H  H237  1  0.79561000  0.77511000  0.45078000  1
  H  H238  1  0.85188000  0.76095000  0.45179000  1
  H  H239  1  0.70424000  0.16723000  0.55136000  1
  H  H240  1  0.58237000  0.08137000  0.57105000  1
  H  H241  1  0.63289000  0.12262000  0.64675000  1
  H  H242  1  0.60042000  0.09333000  0.68438000  1
  H  H243  1  0.54990000  0.05208000  0.60868000  1
  H  H244  1  0.79561000  0.22489000  0.54922000  1
  H  H245  1  0.85188000  0.23905000  0.54821000  1
  H  H246  1  0.29576000  0.16723000  0.44864000  1
  H  H247  1  0.41763000  0.08137000  0.42895000  1
  H  H248  1  0.36711000  0.12262000  0.35325000  1
  H  H249  1  0.39958000  0.09333000  0.31562000  1
  H  H250  1  0.45010000  0.05208000  0.39132000  1
  H  H251  1  0.20439000  0.22489000  0.45078000  1
  H  H252  1  0.14812000  0.23905000  0.45179000  1
  H  H253  1  0.29576000  0.83277000  0.55136000  1
  H  H254  1  0.41763000  0.91863000  0.57105000  1
  H  H255  1  0.36711000  0.87738000  0.64675000  1
  H  H256  1  0.39958000  0.90667000  0.68438000  1
  H  H257  1  0.45010000  0.94792000  0.60868000  1
  H  H258  1  0.20439000  0.77511000  0.54922000  1
  H  H259  1  0.14812000  0.76095000  0.54821000  1
  H  H260  1  0.44864000  0.70424000  0.83277000  1
  H  H261  1  0.42895000  0.58237000  0.91863000  1
  H  H262  1  0.35325000  0.63289000  0.87738000  1
  H  H263  1  0.31562000  0.60042000  0.90667000  1
  H  H264  1  0.39132000  0.54990000  0.94792000  1
  H  H265  1  0.45078000  0.79561000  0.77511000  1
  H  H266  1  0.45179000  0.85188000  0.76095000  1
  H  H267  1  0.55136000  0.70424000  0.16723000  1
  H  H268  1  0.57105000  0.58237000  0.08137000  1
  H  H269  1  0.64675000  0.63289000  0.12262000  1
  H  H270  1  0.68438000  0.60042000  0.09333000  1
  H  H271  1  0.60868000  0.54990000  0.05208000  1
  H  H272  1  0.54922000  0.79561000  0.22489000  1
  H  H273  1  0.54821000  0.85188000  0.23905000  1
  H  H274  1  0.44864000  0.29576000  0.16723000  1
  H  H275  1  0.42895000  0.41763000  0.08137000  1
  H  H276  1  0.35325000  0.36711000  0.12262000  1
  H  H277  1  0.31562000  0.39958000  0.09333000  1
  H  H278  1  0.39132000  0.45010000  0.05208000  1
  H  H279  1  0.45078000  0.20439000  0.22489000  1
  H  H280  1  0.45179000  0.14812000  0.23905000  1
  H  H281  1  0.55136000  0.29576000  0.83277000  1
  H  H282  1  0.57105000  0.41763000  0.91863000  1
  H  H283  1  0.64675000  0.36711000  0.87738000  1
  H  H284  1  0.68438000  0.39958000  0.90667000  1
  H  H285  1  0.60868000  0.45010000  0.94792000  1
  H  H286  1  0.54922000  0.20439000  0.77511000  1
  H  H287  1  0.54821000  0.14812000  0.76095000  1
  H  H288  1  0.94864000  0.33277000  0.79576000  1
  H  H289  1  0.92895000  0.41863000  0.91763000  1
  H  H290  1  0.85325000  0.37738000  0.86711000  1
  H  H291  1  0.81562000  0.40667000  0.89958000  1
  H  H292  1  0.89132000  0.44792000  0.95010000  1
  H  H293  1  0.95078000  0.27511000  0.70439000  1
  H  H294  1  0.95179000  0.26095000  0.64812000  1
  H  H295  1  0.05136000  0.66723000  0.79576000  1
  H  H296  1  0.07105000  0.58137000  0.91763000  1
  H  H297  1  0.14675000  0.62262000  0.86711000  1
  H  H298  1  0.18438000  0.59333000  0.89958000  1
  H  H299  1  0.10868000  0.55208000  0.95010000  1
  H  H300  1  0.04922000  0.72489000  0.70439000  1
  H  H301  1  0.04821000  0.73905000  0.64812000  1
  H  H302  1  0.94864000  0.66723000  0.20424000  1
  H  H303  1  0.92895000  0.58137000  0.08237000  1
  H  H304  1  0.85325000  0.62262000  0.13289000  1
  H  H305  1  0.81562000  0.59333000  0.10042000  1
  H  H306  1  0.89132000  0.55208000  0.04990000  1
  H  H307  1  0.95078000  0.72489000  0.29561000  1
  H  H308  1  0.95179000  0.73905000  0.35188000  1
  H  H309  1  0.05136000  0.33277000  0.20424000  1
  H  H310  1  0.07105000  0.41863000  0.08237000  1
  H  H311  1  0.14675000  0.37738000  0.13289000  1
  H  H312  1  0.18438000  0.40667000  0.10042000  1
  H  H313  1  0.10868000  0.44792000  0.04990000  1
  H  H314  1  0.04922000  0.27511000  0.29561000  1
  H  H315  1  0.04821000  0.26095000  0.35188000  1
  H  H316  1  0.33277000  0.20424000  0.05136000  1
  H  H317  1  0.41863000  0.08237000  0.07105000  1
  H  H318  1  0.37738000  0.13289000  0.14675000  1
  H  H319  1  0.40667000  0.10042000  0.18438000  1
  H  H320  1  0.44792000  0.04990000  0.10868000  1
  H  H321  1  0.27511000  0.29561000  0.04922000  1
  H  H322  1  0.26095000  0.35188000  0.04821000  1
  H  H323  1  0.66723000  0.20424000  0.94864000  1
  H  H324  1  0.58137000  0.08237000  0.92895000  1
  H  H325  1  0.62262000  0.13289000  0.85325000  1
  H  H326  1  0.59333000  0.10042000  0.81562000  1
  H  H327  1  0.55208000  0.04990000  0.89132000  1
  H  H328  1  0.72489000  0.29561000  0.95078000  1
  H  H329  1  0.73905000  0.35188000  0.95179000  1
  H  H330  1  0.66723000  0.79576000  0.05136000  1
  H  H331  1  0.58137000  0.91763000  0.07105000  1
  H  H332  1  0.62262000  0.86711000  0.14675000  1
  H  H333  1  0.59333000  0.89958000  0.18438000  1
  H  H334  1  0.55208000  0.95010000  0.10868000  1
  H  H335  1  0.72489000  0.70439000  0.04922000  1
  H  H336  1  0.73905000  0.64812000  0.04821000  1
  H  H337  1  0.33277000  0.79576000  0.94864000  1
  H  H338  1  0.41863000  0.91763000  0.92895000  1
  H  H339  1  0.37738000  0.86711000  0.85325000  1
  H  H340  1  0.40667000  0.89958000  0.81562000  1
  H  H341  1  0.44792000  0.95010000  0.89132000  1
  H  H342  1  0.27511000  0.70439000  0.95078000  1
  H  H343  1  0.26095000  0.64812000  0.95179000  1
  H  H344  1  0.20424000  0.94864000  0.66723000  1
  H  H345  1  0.08237000  0.92895000  0.58137000  1
  H  H346  1  0.13289000  0.85325000  0.62262000  1
  H  H347  1  0.10042000  0.81562000  0.59333000  1
  H  H348  1  0.04990000  0.89132000  0.55208000  1
  H  H349  1  0.29561000  0.95078000  0.72489000  1
  H  H350  1  0.35188000  0.95179000  0.73905000  1
  H  H351  1  0.20424000  0.05136000  0.33277000  1
  H  H352  1  0.08237000  0.07105000  0.41863000  1
  H  H353  1  0.13289000  0.14675000  0.37738000  1
  H  H354  1  0.10042000  0.18438000  0.40667000  1
  H  H355  1  0.04990000  0.10868000  0.44792000  1
  H  H356  1  0.29561000  0.04922000  0.27511000  1
  H  H357  1  0.35188000  0.04821000  0.26095000  1
  H  H358  1  0.79576000  0.94864000  0.33277000  1
  H  H359  1  0.91763000  0.92895000  0.41863000  1
  H  H360  1  0.86711000  0.85325000  0.37738000  1
  H  H361  1  0.89958000  0.81562000  0.40667000  1
  H  H362  1  0.95010000  0.89132000  0.44792000  1
  H  H363  1  0.70439000  0.95078000  0.27511000  1
  H  H364  1  0.64812000  0.95179000  0.26095000  1
  H  H365  1  0.79576000  0.05136000  0.66723000  1
  H  H366  1  0.91763000  0.07105000  0.58137000  1
  H  H367  1  0.86711000  0.14675000  0.62262000  1
  H  H368  1  0.89958000  0.18438000  0.59333000  1
  H  H369  1  0.95010000  0.10868000  0.55208000  1
  H  H370  1  0.70439000  0.04922000  0.72489000  1
  H  H371  1  0.64812000  0.04821000  0.73905000  1
  H  H372  1  0.12446000  0.50000000  0.37237000  1
  H  H373  1  0.87554000  0.50000000  0.37237000  1
  H  H374  1  0.87554000  0.50000000  0.62763000  1
  H  H375  1  0.12446000  0.50000000  0.62763000  1
  H  H376  1  0.37237000  0.12446000  0.50000000  1
  H  H377  1  0.37237000  0.87554000  0.50000000  1
  H  H378  1  0.62763000  0.87554000  0.50000000  1
  H  H379  1  0.62763000  0.12446000  0.50000000  1
  H  H380  1  0.50000000  0.37237000  0.12446000  1
  H  H381  1  0.50000000  0.37237000  0.87554000  1
  H  H382  1  0.50000000  0.62763000  0.87554000  1
  H  H383  1  0.50000000  0.62763000  0.12446000  1
  H  H384  1  0.00000000  0.62446000  0.12763000  1
  H  H385  1  0.00000000  0.37554000  0.12763000  1
  H  H386  1  0.00000000  0.37554000  0.87237000  1
  H  H387  1  0.00000000  0.62446000  0.87237000  1
  H  H388  1  0.62446000  0.87237000  0.00000000  1
  H  H389  1  0.37554000  0.87237000  0.00000000  1
  H  H390  1  0.37554000  0.12763000  0.00000000  1
  H  H391  1  0.62446000  0.12763000  0.00000000  1
  H  H392  1  0.87237000  0.00000000  0.37554000  1
  H  H393  1  0.87237000  0.00000000  0.62446000  1
  H  H394  1  0.12763000  0.00000000  0.62446000  1
  H  H395  1  0.12763000  0.00000000  0.37554000  1
  H  H396  1  0.06403000  0.70228000  0.50000000  1
  H  H397  1  0.93597000  0.29772000  0.50000000  1
  H  H398  1  0.93597000  0.70228000  0.50000000  1
  H  H399  1  0.06403000  0.29772000  0.50000000  1
  H  H400  1  0.50000000  0.06403000  0.70228000  1
  H  H401  1  0.50000000  0.93597000  0.29772000  1
  H  H402  1  0.50000000  0.93597000  0.70228000  1
  H  H403  1  0.50000000  0.06403000  0.29772000  1
  H  H404  1  0.70228000  0.50000000  0.06403000  1
  H  H405  1  0.29772000  0.50000000  0.93597000  1
  H  H406  1  0.70228000  0.50000000  0.93597000  1
  H  H407  1  0.29772000  0.50000000  0.06403000  1
  H  H408  1  0.20228000  0.56403000  0.00000000  1
  H  H409  1  0.79772000  0.43597000  0.00000000  1
  H  H410  1  0.20228000  0.43597000  0.00000000  1
  H  H411  1  0.79772000  0.56403000  0.00000000  1
  H  H412  1  0.56403000  0.00000000  0.79772000  1
  H  H413  1  0.43597000  0.00000000  0.20228000  1
  H  H414  1  0.43597000  0.00000000  0.79772000  1
  H  H415  1  0.56403000  0.00000000  0.20228000  1
  H  H416  1  0.00000000  0.20228000  0.43597000  1
  H  H417  1  0.00000000  0.79772000  0.56403000  1
  H  H418  1  0.00000000  0.20228000  0.56403000  1
  H  H419  1  0.00000000  0.79772000  0.43597000  1
  C  C420  1  0.16190000  0.53140000  0.30680000  1
  C  C421  1  0.14350000  0.53070000  0.33600000  1
  C  C422  1  0.13400000  0.56160000  0.35270000  1
  C  C423  1  0.08380000  0.59410000  0.41400000  1
  C  C424  1  0.10470000  0.60540000  0.38930000  1
  C  C425  1  0.10830000  0.63900000  0.38400000  1
  C  C426  1  0.09090000  0.66140000  0.40320000  1
  C  C427  1  0.06990000  0.65010000  0.42790000  1
  C  C428  1  0.06640000  0.61640000  0.43330000  1
  C  C429  1  0.05230000  0.67310000  0.44910000  1
  C  C430  1  0.12600000  0.58150000  0.37160000  1
  C  C431  1  0.22460000  0.52910000  0.19230000  1
  C  C432  1  0.23280000  0.52830000  0.15870000  1
  C  C433  1  0.83810000  0.46860000  0.30680000  1
  C  C434  1  0.85650000  0.46930000  0.33600000  1
  C  C435  1  0.86600000  0.43840000  0.35270000  1
  C  C436  1  0.91620000  0.40590000  0.41400000  1
  C  C437  1  0.89530000  0.39460000  0.38930000  1
  C  C438  1  0.89170000  0.36100000  0.38400000  1
  C  C439  1  0.90910000  0.33860000  0.40320000  1
  C  C440  1  0.93010000  0.34990000  0.42790000  1
  C  C441  1  0.93360000  0.38360000  0.43330000  1
  C  C442  1  0.94770000  0.32690000  0.44910000  1
  C  C443  1  0.87400000  0.41850000  0.37160000  1
  C  C444  1  0.77540000  0.47090000  0.19230000  1
  C  C445  1  0.76720000  0.47170000  0.15870000  1
  C  C446  1  0.83810000  0.53140000  0.69320000  1
  C  C447  1  0.85650000  0.53070000  0.66400000  1
  C  C448  1  0.86600000  0.56160000  0.64730000  1
  C  C449  1  0.91620000  0.59410000  0.58600000  1
  C  C450  1  0.89530000  0.60540000  0.61070000  1
  C  C451  1  0.89170000  0.63900000  0.61600000  1
  C  C452  1  0.90910000  0.66140000  0.59680000  1
  C  C453  1  0.93010000  0.65010000  0.57210000  1
  C  C454  1  0.93360000  0.61640000  0.56670000  1
  C  C455  1  0.94770000  0.67310000  0.55090000  1
  C  C456  1  0.87400000  0.58150000  0.62840000  1
  C  C457  1  0.77540000  0.52910000  0.80770000  1
  C  C458  1  0.76720000  0.52830000  0.84130000  1
  C  C459  1  0.16190000  0.46860000  0.69320000  1
  C  C460  1  0.14350000  0.46930000  0.66400000  1
  C  C461  1  0.13400000  0.43840000  0.64730000  1
  C  C462  1  0.08380000  0.40590000  0.58600000  1
  C  C463  1  0.10470000  0.39460000  0.61070000  1
  C  C464  1  0.10830000  0.36100000  0.61600000  1
  C  C465  1  0.09090000  0.33860000  0.59680000  1
  C  C466  1  0.06990000  0.34990000  0.57210000  1
  C  C467  1  0.06640000  0.38360000  0.56670000  1
  C  C468  1  0.05230000  0.32690000  0.55090000  1
  C  C469  1  0.12600000  0.41850000  0.62840000  1
  C  C470  1  0.22460000  0.47090000  0.80770000  1
  C  C471  1  0.23280000  0.47170000  0.84130000  1
  C  C472  1  0.30680000  0.16190000  0.53140000  1
  C  C473  1  0.33600000  0.14350000  0.53070000  1
  C  C474  1  0.35270000  0.13400000  0.56160000  1
  C  C475  1  0.41400000  0.08380000  0.59410000  1
  C  C476  1  0.38930000  0.10470000  0.60540000  1
  C  C477  1  0.38400000  0.10830000  0.63900000  1
  C  C478  1  0.40320000  0.09090000  0.66140000  1
  C  C479  1  0.42790000  0.06990000  0.65010000  1
  C  C480  1  0.43330000  0.06640000  0.61640000  1
  C  C481  1  0.44910000  0.05230000  0.67310000  1
  C  C482  1  0.37160000  0.12600000  0.58150000  1
  C  C483  1  0.19230000  0.22460000  0.52910000  1
  C  C484  1  0.15870000  0.23280000  0.52830000  1
  C  C485  1  0.30680000  0.83810000  0.46860000  1
  C  C486  1  0.33600000  0.85650000  0.46930000  1
  C  C487  1  0.35270000  0.86600000  0.43840000  1
  C  C488  1  0.41400000  0.91620000  0.40590000  1
  C  C489  1  0.38930000  0.89530000  0.39460000  1
  C  C490  1  0.38400000  0.89170000  0.36100000  1
  C  C491  1  0.40320000  0.90910000  0.33860000  1
  C  C492  1  0.42790000  0.93010000  0.34990000  1
  C  C493  1  0.43330000  0.93360000  0.38360000  1
  C  C494  1  0.44910000  0.94770000  0.32690000  1
  C  C495  1  0.37160000  0.87400000  0.41850000  1
  C  C496  1  0.19230000  0.77540000  0.47090000  1
  C  C497  1  0.15870000  0.76720000  0.47170000  1
  C  C498  1  0.69320000  0.83810000  0.53140000  1
  C  C499  1  0.66400000  0.85650000  0.53070000  1
  C  C500  1  0.64730000  0.86600000  0.56160000  1
  C  C501  1  0.58600000  0.91620000  0.59410000  1
  C  C502  1  0.61070000  0.89530000  0.60540000  1
  C  C503  1  0.61600000  0.89170000  0.63900000  1
  C  C504  1  0.59680000  0.90910000  0.66140000  1
  C  C505  1  0.57210000  0.93010000  0.65010000  1
  C  C506  1  0.56670000  0.93360000  0.61640000  1
  C  C507  1  0.55090000  0.94770000  0.67310000  1
  C  C508  1  0.62840000  0.87400000  0.58150000  1
  C  C509  1  0.80770000  0.77540000  0.52910000  1
  C  C510  1  0.84130000  0.76720000  0.52830000  1
  C  C511  1  0.69320000  0.16190000  0.46860000  1
  C  C512  1  0.66400000  0.14350000  0.46930000  1
  C  C513  1  0.64730000  0.13400000  0.43840000  1
  C  C514  1  0.58600000  0.08380000  0.40590000  1
  C  C515  1  0.61070000  0.10470000  0.39460000  1
  C  C516  1  0.61600000  0.10830000  0.36100000  1
  C  C517  1  0.59680000  0.09090000  0.33860000  1
  C  C518  1  0.57210000  0.06990000  0.34990000  1
  C  C519  1  0.56670000  0.06640000  0.38360000  1
  C  C520  1  0.55090000  0.05230000  0.32690000  1
  C  C521  1  0.62840000  0.12600000  0.41850000  1
  C  C522  1  0.80770000  0.22460000  0.47090000  1
  C  C523  1  0.84130000  0.23280000  0.47170000  1
  C  C524  1  0.53140000  0.30680000  0.16190000  1
  C  C525  1  0.53070000  0.33600000  0.14350000  1
  C  C526  1  0.56160000  0.35270000  0.13400000  1
  C  C527  1  0.59410000  0.41400000  0.08380000  1
  C  C528  1  0.60540000  0.38930000  0.10470000  1
  C  C529  1  0.63900000  0.38400000  0.10830000  1
  C  C530  1  0.66140000  0.40320000  0.09090000  1
  C  C531  1  0.65010000  0.42790000  0.06990000  1
  C  C532  1  0.61640000  0.43330000  0.06640000  1
  C  C533  1  0.67310000  0.44910000  0.05230000  1
  C  C534  1  0.58150000  0.37160000  0.12600000  1
  C  C535  1  0.52910000  0.19230000  0.22460000  1
  C  C536  1  0.52830000  0.15870000  0.23280000  1
  C  C537  1  0.46860000  0.30680000  0.83810000  1
  C  C538  1  0.46930000  0.33600000  0.85650000  1
  C  C539  1  0.43840000  0.35270000  0.86600000  1
  C  C540  1  0.40590000  0.41400000  0.91620000  1
  C  C541  1  0.39460000  0.38930000  0.89530000  1
  C  C542  1  0.36100000  0.38400000  0.89170000  1
  C  C543  1  0.33860000  0.40320000  0.90910000  1
  C  C544  1  0.34990000  0.42790000  0.93010000  1
  C  C545  1  0.38360000  0.43330000  0.93360000  1
  C  C546  1  0.32690000  0.44910000  0.94770000  1
  C  C547  1  0.41850000  0.37160000  0.87400000  1
  C  C548  1  0.47090000  0.19230000  0.77540000  1
  C  C549  1  0.47170000  0.15870000  0.76720000  1
  C  C550  1  0.53140000  0.69320000  0.83810000  1
  C  C551  1  0.53070000  0.66400000  0.85650000  1
  C  C552  1  0.56160000  0.64730000  0.86600000  1
  C  C553  1  0.59410000  0.58600000  0.91620000  1
  C  C554  1  0.60540000  0.61070000  0.89530000  1
  C  C555  1  0.63900000  0.61600000  0.89170000  1
  C  C556  1  0.66140000  0.59680000  0.90910000  1
  C  C557  1  0.65010000  0.57210000  0.93010000  1
  C  C558  1  0.61640000  0.56670000  0.93360000  1
  C  C559  1  0.67310000  0.55090000  0.94770000  1
  C  C560  1  0.58150000  0.62840000  0.87400000  1
  C  C561  1  0.52910000  0.80770000  0.77540000  1
  C  C562  1  0.52830000  0.84130000  0.76720000  1
  C  C563  1  0.46860000  0.69320000  0.16190000  1
  C  C564  1  0.46930000  0.66400000  0.14350000  1
  C  C565  1  0.43840000  0.64730000  0.13400000  1
  C  C566  1  0.40590000  0.58600000  0.08380000  1
  C  C567  1  0.39460000  0.61070000  0.10470000  1
  C  C568  1  0.36100000  0.61600000  0.10830000  1
  C  C569  1  0.33860000  0.59680000  0.09090000  1
  C  C570  1  0.34990000  0.57210000  0.06990000  1
  C  C571  1  0.38360000  0.56670000  0.06640000  1
  C  C572  1  0.32690000  0.55090000  0.05230000  1
  C  C573  1  0.41850000  0.62840000  0.12600000  1
  C  C574  1  0.47090000  0.80770000  0.22460000  1
  C  C575  1  0.47170000  0.84130000  0.23280000  1
  C  C576  1  0.03140000  0.66190000  0.19320000  1
  C  C577  1  0.03070000  0.64350000  0.16400000  1
  C  C578  1  0.06160000  0.63400000  0.14730000  1
  C  C579  1  0.09410000  0.58380000  0.08600000  1
  C  C580  1  0.10540000  0.60470000  0.11070000  1
  C  C581  1  0.13900000  0.60830000  0.11600000  1
  C  C582  1  0.16140000  0.59090000  0.09680000  1
  C  C583  1  0.15010000  0.56990000  0.07210000  1
  C  C584  1  0.11640000  0.56640000  0.06670000  1
  C  C585  1  0.17310000  0.55230000  0.05090000  1
  C  C586  1  0.08150000  0.62600000  0.12840000  1
  C  C587  1  0.02910000  0.72460000  0.30770000  1
  C  C588  1  0.02830000  0.73280000  0.34130000  1
  C  C589  1  0.96860000  0.33810000  0.19320000  1
  C  C590  1  0.96930000  0.35650000  0.16400000  1
  C  C591  1  0.93840000  0.36600000  0.14730000  1
  C  C592  1  0.90590000  0.41620000  0.08600000  1
  C  C593  1  0.89460000  0.39530000  0.11070000  1
  C  C594  1  0.86100000  0.39170000  0.11600000  1
  C  C595  1  0.83860000  0.40910000  0.09680000  1
  C  C596  1  0.84990000  0.43010000  0.07210000  1
  C  C597  1  0.88360000  0.43360000  0.06670000  1
  C  C598  1  0.82690000  0.44770000  0.05090000  1
  C  C599  1  0.91850000  0.37400000  0.12840000  1
  C  C600  1  0.97090000  0.27540000  0.30770000  1
  C  C601  1  0.97170000  0.26720000  0.34130000  1
  C  C602  1  0.03140000  0.33810000  0.80680000  1
  C  C603  1  0.03070000  0.35650000  0.83600000  1
  C  C604  1  0.06160000  0.36600000  0.85270000  1
  C  C605  1  0.09410000  0.41620000  0.91400000  1
  C  C606  1  0.10540000  0.39530000  0.88930000  1
  C  C607  1  0.13900000  0.39170000  0.88400000  1
  C  C608  1  0.16140000  0.40910000  0.90320000  1
  C  C609  1  0.15010000  0.43010000  0.92790000  1
  C  C610  1  0.11640000  0.43360000  0.93330000  1
  C  C611  1  0.17310000  0.44770000  0.94910000  1
  C  C612  1  0.08150000  0.37400000  0.87160000  1
  C  C613  1  0.02910000  0.27540000  0.69230000  1
  C  C614  1  0.02830000  0.26720000  0.65870000  1
  C  C615  1  0.96860000  0.66190000  0.80680000  1
  C  C616  1  0.96930000  0.64350000  0.83600000  1
  C  C617  1  0.93840000  0.63400000  0.85270000  1
  C  C618  1  0.90590000  0.58380000  0.91400000  1
  C  C619  1  0.89460000  0.60470000  0.88930000  1
  C  C620  1  0.86100000  0.60830000  0.88400000  1
  C  C621  1  0.83860000  0.59090000  0.90320000  1
  C  C622  1  0.84990000  0.56990000  0.92790000  1
  C  C623  1  0.88360000  0.56640000  0.93330000  1
  C  C624  1  0.82690000  0.55230000  0.94910000  1
  C  C625  1  0.91850000  0.62600000  0.87160000  1
  C  C626  1  0.97090000  0.72460000  0.69230000  1
  C  C627  1  0.97170000  0.73280000  0.65870000  1
  C  C628  1  0.66190000  0.80680000  0.96860000  1
  C  C629  1  0.64350000  0.83600000  0.96930000  1
  C  C630  1  0.63400000  0.85270000  0.93840000  1
  C  C631  1  0.58380000  0.91400000  0.90590000  1
  C  C632  1  0.60470000  0.88930000  0.89460000  1
  C  C633  1  0.60830000  0.88400000  0.86100000  1
  C  C634  1  0.59090000  0.90320000  0.83860000  1
  C  C635  1  0.56990000  0.92790000  0.84990000  1
  C  C636  1  0.56640000  0.93330000  0.88360000  1
  C  C637  1  0.55230000  0.94910000  0.82690000  1
  C  C638  1  0.62600000  0.87160000  0.91850000  1
  C  C639  1  0.72460000  0.69230000  0.97090000  1
  C  C640  1  0.73280000  0.65870000  0.97170000  1
  C  C641  1  0.33810000  0.80680000  0.03140000  1
  C  C642  1  0.35650000  0.83600000  0.03070000  1
  C  C643  1  0.36600000  0.85270000  0.06160000  1
  C  C644  1  0.41620000  0.91400000  0.09410000  1
  C  C645  1  0.39530000  0.88930000  0.10540000  1
  C  C646  1  0.39170000  0.88400000  0.13900000  1
  C  C647  1  0.40910000  0.90320000  0.16140000  1
  C  C648  1  0.43010000  0.92790000  0.15010000  1
  C  C649  1  0.43360000  0.93330000  0.11640000  1
  C  C650  1  0.44770000  0.94910000  0.17310000  1
  C  C651  1  0.37400000  0.87160000  0.08150000  1
  C  C652  1  0.27540000  0.69230000  0.02910000  1
  C  C653  1  0.26720000  0.65870000  0.02830000  1
  C  C654  1  0.33810000  0.19320000  0.96860000  1
  C  C655  1  0.35650000  0.16400000  0.96930000  1
  C  C656  1  0.36600000  0.14730000  0.93840000  1
  C  C657  1  0.41620000  0.08600000  0.90590000  1
  C  C658  1  0.39530000  0.11070000  0.89460000  1
  C  C659  1  0.39170000  0.11600000  0.86100000  1
  C  C660  1  0.40910000  0.09680000  0.83860000  1
  C  C661  1  0.43010000  0.07210000  0.84990000  1
  C  C662  1  0.43360000  0.06670000  0.88360000  1
  C  C663  1  0.44770000  0.05090000  0.82690000  1
  C  C664  1  0.37400000  0.12840000  0.91850000  1
  C  C665  1  0.27540000  0.30770000  0.97090000  1
  C  C666  1  0.26720000  0.34130000  0.97170000  1
  C  C667  1  0.66190000  0.19320000  0.03140000  1
  C  C668  1  0.64350000  0.16400000  0.03070000  1
  C  C669  1  0.63400000  0.14730000  0.06160000  1
  C  C670  1  0.58380000  0.08600000  0.09410000  1
  C  C671  1  0.60470000  0.11070000  0.10540000  1
  C  C672  1  0.60830000  0.11600000  0.13900000  1
  C  C673  1  0.59090000  0.09680000  0.16140000  1
  C  C674  1  0.56990000  0.07210000  0.15010000  1
  C  C675  1  0.56640000  0.06670000  0.11640000  1
  C  C676  1  0.55230000  0.05090000  0.17310000  1
  C  C677  1  0.62600000  0.12840000  0.08150000  1
  C  C678  1  0.72460000  0.30770000  0.02910000  1
  C  C679  1  0.73280000  0.34130000  0.02830000  1
  C  C680  1  0.80680000  0.03140000  0.33810000  1
  C  C681  1  0.83600000  0.03070000  0.35650000  1
  C  C682  1  0.85270000  0.06160000  0.36600000  1
  C  C683  1  0.91400000  0.09410000  0.41620000  1
  C  C684  1  0.88930000  0.10540000  0.39530000  1
  C  C685  1  0.88400000  0.13900000  0.39170000  1
  C  C686  1  0.90320000  0.16140000  0.40910000  1
  C  C687  1  0.92790000  0.15010000  0.43010000  1
  C  C688  1  0.93330000  0.11640000  0.43360000  1
  C  C689  1  0.94910000  0.17310000  0.44770000  1
  C  C690  1  0.87160000  0.08150000  0.37400000  1
  C  C691  1  0.69230000  0.02910000  0.27540000  1
  C  C692  1  0.65870000  0.02830000  0.26720000  1
  C  C693  1  0.80680000  0.96860000  0.66190000  1
  C  C694  1  0.83600000  0.96930000  0.64350000  1
  C  C695  1  0.85270000  0.93840000  0.63400000  1
  C  C696  1  0.91400000  0.90590000  0.58380000  1
  C  C697  1  0.88930000  0.89460000  0.60470000  1
  C  C698  1  0.88400000  0.86100000  0.60830000  1
  C  C699  1  0.90320000  0.83860000  0.59090000  1
  C  C700  1  0.92790000  0.84990000  0.56990000  1
  C  C701  1  0.93330000  0.88360000  0.56640000  1
  C  C702  1  0.94910000  0.82690000  0.55230000  1
  C  C703  1  0.87160000  0.91850000  0.62600000  1
  C  C704  1  0.69230000  0.97090000  0.72460000  1
  C  C705  1  0.65870000  0.97170000  0.73280000  1
  C  C706  1  0.19320000  0.03140000  0.66190000  1
  C  C707  1  0.16400000  0.03070000  0.64350000  1
  C  C708  1  0.14730000  0.06160000  0.63400000  1
  C  C709  1  0.08600000  0.09410000  0.58380000  1
  C  C710  1  0.11070000  0.10540000  0.60470000  1
  C  C711  1  0.11600000  0.13900000  0.60830000  1
  C  C712  1  0.09680000  0.16140000  0.59090000  1
  C  C713  1  0.07210000  0.15010000  0.56990000  1
  C  C714  1  0.06670000  0.11640000  0.56640000  1
  C  C715  1  0.05090000  0.17310000  0.55230000  1
  C  C716  1  0.12840000  0.08150000  0.62600000  1
  C  C717  1  0.30770000  0.02910000  0.72460000  1
  C  C718  1  0.34130000  0.02830000  0.73280000  1
  C  C719  1  0.19320000  0.96860000  0.33810000  1
  C  C720  1  0.16400000  0.96930000  0.35650000  1
  C  C721  1  0.14730000  0.93840000  0.36600000  1
  C  C722  1  0.08600000  0.90590000  0.41620000  1
  C  C723  1  0.11070000  0.89460000  0.39530000  1
  C  C724  1  0.11600000  0.86100000  0.39170000  1
  C  C725  1  0.09680000  0.83860000  0.40910000  1
  C  C726  1  0.07210000  0.84990000  0.43010000  1
  C  C727  1  0.06670000  0.88360000  0.43360000  1
  C  C728  1  0.05090000  0.82690000  0.44770000  1
  C  C729  1  0.12840000  0.91850000  0.37400000  1
  C  C730  1  0.30770000  0.97090000  0.27540000  1
  C  C731  1  0.34130000  0.97170000  0.26720000  1
  C  C732  1  0.83810000  0.46860000  0.69320000  1
  C  C733  1  0.85650000  0.46930000  0.66400000  1
  C  C734  1  0.86600000  0.43840000  0.64730000  1
  C  C735  1  0.91620000  0.40590000  0.58600000  1
  C  C736  1  0.89530000  0.39460000  0.61070000  1
  C  C737  1  0.89170000  0.36100000  0.61600000  1
  C  C738  1  0.90910000  0.33860000  0.59680000  1
  C  C739  1  0.93010000  0.34990000  0.57210000  1
  C  C740  1  0.93360000  0.38360000  0.56670000  1
  C  C741  1  0.94770000  0.32690000  0.55090000  1
  C  C742  1  0.87400000  0.41850000  0.62840000  1
  C  C743  1  0.77540000  0.47090000  0.80770000  1
  C  C744  1  0.76720000  0.47170000  0.84130000  1
  C  C745  1  0.16190000  0.53140000  0.69320000  1
  C  C746  1  0.14350000  0.53070000  0.66400000  1
  C  C747  1  0.13400000  0.56160000  0.64730000  1
  C  C748  1  0.08380000  0.59410000  0.58600000  1
  C  C749  1  0.10470000  0.60540000  0.61070000  1
  C  C750  1  0.10830000  0.63900000  0.61600000  1
  C  C751  1  0.09090000  0.66140000  0.59680000  1
  C  C752  1  0.06990000  0.65010000  0.57210000  1
  C  C753  1  0.06640000  0.61640000  0.56670000  1
  C  C754  1  0.05230000  0.67310000  0.55090000  1
  C  C755  1  0.12600000  0.58150000  0.62840000  1
  C  C756  1  0.22460000  0.52910000  0.80770000  1
  C  C757  1  0.23280000  0.52830000  0.84130000  1
  C  C758  1  0.16190000  0.46860000  0.30680000  1
  C  C759  1  0.14350000  0.46930000  0.33600000  1
  C  C760  1  0.13400000  0.43840000  0.35270000  1
  C  C761  1  0.08380000  0.40590000  0.41400000  1
  C  C762  1  0.10470000  0.39460000  0.38930000  1
  C  C763  1  0.10830000  0.36100000  0.38400000  1
  C  C764  1  0.09090000  0.33860000  0.40320000  1
  C  C765  1  0.06990000  0.34990000  0.42790000  1
  C  C766  1  0.06640000  0.38360000  0.43330000  1
  C  C767  1  0.05230000  0.32690000  0.44910000  1
  C  C768  1  0.12600000  0.41850000  0.37160000  1
  C  C769  1  0.22460000  0.47090000  0.19230000  1
  C  C770  1  0.23280000  0.47170000  0.15870000  1
  C  C771  1  0.83810000  0.53140000  0.30680000  1
  C  C772  1  0.85650000  0.53070000  0.33600000  1
  C  C773  1  0.86600000  0.56160000  0.35270000  1
  C  C774  1  0.91620000  0.59410000  0.41400000  1
  C  C775  1  0.89530000  0.60540000  0.38930000  1
  C  C776  1  0.89170000  0.63900000  0.38400000  1
  C  C777  1  0.90910000  0.66140000  0.40320000  1
  C  C778  1  0.93010000  0.65010000  0.42790000  1
  C  C779  1  0.93360000  0.61640000  0.43330000  1
  C  C780  1  0.94770000  0.67310000  0.44910000  1
  C  C781  1  0.87400000  0.58150000  0.37160000  1
  C  C782  1  0.77540000  0.52910000  0.19230000  1
  C  C783  1  0.76720000  0.52830000  0.15870000  1
  C  C784  1  0.69320000  0.83810000  0.46860000  1
  C  C785  1  0.66400000  0.85650000  0.46930000  1
  C  C786  1  0.64730000  0.86600000  0.43840000  1
  C  C787  1  0.58600000  0.91620000  0.40590000  1
  C  C788  1  0.61070000  0.89530000  0.39460000  1
  C  C789  1  0.61600000  0.89170000  0.36100000  1
  C  C790  1  0.59680000  0.90910000  0.33860000  1
  C  C791  1  0.57210000  0.93010000  0.34990000  1
  C  C792  1  0.56670000  0.93360000  0.38360000  1
  C  C793  1  0.55090000  0.94770000  0.32690000  1
  C  C794  1  0.62840000  0.87400000  0.41850000  1
  C  C795  1  0.80770000  0.77540000  0.47090000  1
  C  C796  1  0.84130000  0.76720000  0.47170000  1
  C  C797  1  0.69320000  0.16190000  0.53140000  1
  C  C798  1  0.66400000  0.14350000  0.53070000  1
  C  C799  1  0.64730000  0.13400000  0.56160000  1
  C  C800  1  0.58600000  0.08380000  0.59410000  1
  C  C801  1  0.61070000  0.10470000  0.60540000  1
  C  C802  1  0.61600000  0.10830000  0.63900000  1
  C  C803  1  0.59680000  0.09090000  0.66140000  1
  C  C804  1  0.57210000  0.06990000  0.65010000  1
  C  C805  1  0.56670000  0.06640000  0.61640000  1
  C  C806  1  0.55090000  0.05230000  0.67310000  1
  C  C807  1  0.62840000  0.12600000  0.58150000  1
  C  C808  1  0.80770000  0.22460000  0.52910000  1
  C  C809  1  0.84130000  0.23280000  0.52830000  1
  C  C810  1  0.30680000  0.16190000  0.46860000  1
  C  C811  1  0.33600000  0.14350000  0.46930000  1
  C  C812  1  0.35270000  0.13400000  0.43840000  1
  C  C813  1  0.41400000  0.08380000  0.40590000  1
  C  C814  1  0.38930000  0.10470000  0.39460000  1
  C  C815  1  0.38400000  0.10830000  0.36100000  1
  C  C816  1  0.40320000  0.09090000  0.33860000  1
  C  C817  1  0.42790000  0.06990000  0.34990000  1
  C  C818  1  0.43330000  0.06640000  0.38360000  1
  C  C819  1  0.44910000  0.05230000  0.32690000  1
  C  C820  1  0.37160000  0.12600000  0.41850000  1
  C  C821  1  0.19230000  0.22460000  0.47090000  1
  C  C822  1  0.15870000  0.23280000  0.47170000  1
  C  C823  1  0.30680000  0.83810000  0.53140000  1
  C  C824  1  0.33600000  0.85650000  0.53070000  1
  C  C825  1  0.35270000  0.86600000  0.56160000  1
  C  C826  1  0.41400000  0.91620000  0.59410000  1
  C  C827  1  0.38930000  0.89530000  0.60540000  1
  C  C828  1  0.38400000  0.89170000  0.63900000  1
  C  C829  1  0.40320000  0.90910000  0.66140000  1
  C  C830  1  0.42790000  0.93010000  0.65010000  1
  C  C831  1  0.43330000  0.93360000  0.61640000  1
  C  C832  1  0.44910000  0.94770000  0.67310000  1
  C  C833  1  0.37160000  0.87400000  0.58150000  1
  C  C834  1  0.19230000  0.77540000  0.52910000  1
  C  C835  1  0.15870000  0.76720000  0.52830000  1
  C  C836  1  0.46860000  0.69320000  0.83810000  1
  C  C837  1  0.46930000  0.66400000  0.85650000  1
  C  C838  1  0.43840000  0.64730000  0.86600000  1
  C  C839  1  0.40590000  0.58600000  0.91620000  1
  C  C840  1  0.39460000  0.61070000  0.89530000  1
  C  C841  1  0.36100000  0.61600000  0.89170000  1
  C  C842  1  0.33860000  0.59680000  0.90910000  1
  C  C843  1  0.34990000  0.57210000  0.93010000  1
  C  C844  1  0.38360000  0.56670000  0.93360000  1
  C  C845  1  0.32690000  0.55090000  0.94770000  1
  C  C846  1  0.41850000  0.62840000  0.87400000  1
  C  C847  1  0.47090000  0.80770000  0.77540000  1
  C  C848  1  0.47170000  0.84130000  0.76720000  1
  C  C849  1  0.53140000  0.69320000  0.16190000  1
  C  C850  1  0.53070000  0.66400000  0.14350000  1
  C  C851  1  0.56160000  0.64730000  0.13400000  1
  C  C852  1  0.59410000  0.58600000  0.08380000  1
  C  C853  1  0.60540000  0.61070000  0.10470000  1
  C  C854  1  0.63900000  0.61600000  0.10830000  1
  C  C855  1  0.66140000  0.59680000  0.09090000  1
  C  C856  1  0.65010000  0.57210000  0.06990000  1
  C  C857  1  0.61640000  0.56670000  0.06640000  1
  C  C858  1  0.67310000  0.55090000  0.05230000  1
  C  C859  1  0.58150000  0.62840000  0.12600000  1
  C  C860  1  0.52910000  0.80770000  0.22460000  1
  C  C861  1  0.52830000  0.84130000  0.23280000  1
  C  C862  1  0.46860000  0.30680000  0.16190000  1
  C  C863  1  0.46930000  0.33600000  0.14350000  1
  C  C864  1  0.43840000  0.35270000  0.13400000  1
  C  C865  1  0.40590000  0.41400000  0.08380000  1
  C  C866  1  0.39460000  0.38930000  0.10470000  1
  C  C867  1  0.36100000  0.38400000  0.10830000  1
  C  C868  1  0.33860000  0.40320000  0.09090000  1
  C  C869  1  0.34990000  0.42790000  0.06990000  1
  C  C870  1  0.38360000  0.43330000  0.06640000  1
  C  C871  1  0.32690000  0.44910000  0.05230000  1
  C  C872  1  0.41850000  0.37160000  0.12600000  1
  C  C873  1  0.47090000  0.19230000  0.22460000  1
  C  C874  1  0.47170000  0.15870000  0.23280000  1
  C  C875  1  0.53140000  0.30680000  0.83810000  1
  C  C876  1  0.53070000  0.33600000  0.85650000  1
  C  C877  1  0.56160000  0.35270000  0.86600000  1
  C  C878  1  0.59410000  0.41400000  0.91620000  1
  C  C879  1  0.60540000  0.38930000  0.89530000  1
  C  C880  1  0.63900000  0.38400000  0.89170000  1
  C  C881  1  0.66140000  0.40320000  0.90910000  1
  C  C882  1  0.65010000  0.42790000  0.93010000  1
  C  C883  1  0.61640000  0.43330000  0.93360000  1
  C  C884  1  0.67310000  0.44910000  0.94770000  1
  C  C885  1  0.58150000  0.37160000  0.87400000  1
  C  C886  1  0.52910000  0.19230000  0.77540000  1
  C  C887  1  0.52830000  0.15870000  0.76720000  1
  C  C888  1  0.96860000  0.33810000  0.80680000  1
  C  C889  1  0.96930000  0.35650000  0.83600000  1
  C  C890  1  0.93840000  0.36600000  0.85270000  1
  C  C891  1  0.90590000  0.41620000  0.91400000  1
  C  C892  1  0.89460000  0.39530000  0.88930000  1
  C  C893  1  0.86100000  0.39170000  0.88400000  1
  C  C894  1  0.83860000  0.40910000  0.90320000  1
  C  C895  1  0.84990000  0.43010000  0.92790000  1
  C  C896  1  0.88360000  0.43360000  0.93330000  1
  C  C897  1  0.82690000  0.44770000  0.94910000  1
  C  C898  1  0.91850000  0.37400000  0.87160000  1
  C  C899  1  0.97090000  0.27540000  0.69230000  1
  C  C900  1  0.97170000  0.26720000  0.65870000  1
  C  C901  1  0.03140000  0.66190000  0.80680000  1
  C  C902  1  0.03070000  0.64350000  0.83600000  1
  C  C903  1  0.06160000  0.63400000  0.85270000  1
  C  C904  1  0.09410000  0.58380000  0.91400000  1
  C  C905  1  0.10540000  0.60470000  0.88930000  1
  C  C906  1  0.13900000  0.60830000  0.88400000  1
  C  C907  1  0.16140000  0.59090000  0.90320000  1
  C  C908  1  0.15010000  0.56990000  0.92790000  1
  C  C909  1  0.11640000  0.56640000  0.93330000  1
  C  C910  1  0.17310000  0.55230000  0.94910000  1
  C  C911  1  0.08150000  0.62600000  0.87160000  1
  C  C912  1  0.02910000  0.72460000  0.69230000  1
  C  C913  1  0.02830000  0.73280000  0.65870000  1
  C  C914  1  0.96860000  0.66190000  0.19320000  1
  C  C915  1  0.96930000  0.64350000  0.16400000  1
  C  C916  1  0.93840000  0.63400000  0.14730000  1
  C  C917  1  0.90590000  0.58380000  0.08600000  1
  C  C918  1  0.89460000  0.60470000  0.11070000  1
  C  C919  1  0.86100000  0.60830000  0.11600000  1
  C  C920  1  0.83860000  0.59090000  0.09680000  1
  C  C921  1  0.84990000  0.56990000  0.07210000  1
  C  C922  1  0.88360000  0.56640000  0.06670000  1
  C  C923  1  0.82690000  0.55230000  0.05090000  1
  C  C924  1  0.91850000  0.62600000  0.12840000  1
  C  C925  1  0.97090000  0.72460000  0.30770000  1
  C  C926  1  0.97170000  0.73280000  0.34130000  1
  C  C927  1  0.03140000  0.33810000  0.19320000  1
  C  C928  1  0.03070000  0.35650000  0.16400000  1
  C  C929  1  0.06160000  0.36600000  0.14730000  1
  C  C930  1  0.09410000  0.41620000  0.08600000  1
  C  C931  1  0.10540000  0.39530000  0.11070000  1
  C  C932  1  0.13900000  0.39170000  0.11600000  1
  C  C933  1  0.16140000  0.40910000  0.09680000  1
  C  C934  1  0.15010000  0.43010000  0.07210000  1
  C  C935  1  0.11640000  0.43360000  0.06670000  1
  C  C936  1  0.17310000  0.44770000  0.05090000  1
  C  C937  1  0.08150000  0.37400000  0.12840000  1
  C  C938  1  0.02910000  0.27540000  0.30770000  1
  C  C939  1  0.02830000  0.26720000  0.34130000  1
  C  C940  1  0.33810000  0.19320000  0.03140000  1
  C  C941  1  0.35650000  0.16400000  0.03070000  1
  C  C942  1  0.36600000  0.14730000  0.06160000  1
  C  C943  1  0.41620000  0.08600000  0.09410000  1
  C  C944  1  0.39530000  0.11070000  0.10540000  1
  C  C945  1  0.39170000  0.11600000  0.13900000  1
  C  C946  1  0.40910000  0.09680000  0.16140000  1
  C  C947  1  0.43010000  0.07210000  0.15010000  1
  C  C948  1  0.43360000  0.06670000  0.11640000  1
  C  C949  1  0.44770000  0.05090000  0.17310000  1
  C  C950  1  0.37400000  0.12840000  0.08150000  1
  C  C951  1  0.27540000  0.30770000  0.02910000  1
  C  C952  1  0.26720000  0.34130000  0.02830000  1
  C  C953  1  0.66190000  0.19320000  0.96860000  1
  C  C954  1  0.64350000  0.16400000  0.96930000  1
  C  C955  1  0.63400000  0.14730000  0.93840000  1
  C  C956  1  0.58380000  0.08600000  0.90590000  1
  C  C957  1  0.60470000  0.11070000  0.89460000  1
  C  C958  1  0.60830000  0.11600000  0.86100000  1
  C  C959  1  0.59090000  0.09680000  0.83860000  1
  C  C960  1  0.56990000  0.07210000  0.84990000  1
  C  C961  1  0.56640000  0.06670000  0.88360000  1
  C  C962  1  0.55230000  0.05090000  0.82690000  1
  C  C963  1  0.62600000  0.12840000  0.91850000  1
  C  C964  1  0.72460000  0.30770000  0.97090000  1
  C  C965  1  0.73280000  0.34130000  0.97170000  1
  C  C966  1  0.66190000  0.80680000  0.03140000  1
  C  C967  1  0.64350000  0.83600000  0.03070000  1
  C  C968  1  0.63400000  0.85270000  0.06160000  1
  C  C969  1  0.58380000  0.91400000  0.09410000  1
  C  C970  1  0.60470000  0.88930000  0.10540000  1
  C  C971  1  0.60830000  0.88400000  0.13900000  1
  C  C972  1  0.59090000  0.90320000  0.16140000  1
  C  C973  1  0.56990000  0.92790000  0.15010000  1
  C  C974  1  0.56640000  0.93330000  0.11640000  1
  C  C975  1  0.55230000  0.94910000  0.17310000  1
  C  C976  1  0.62600000  0.87160000  0.08150000  1
  C  C977  1  0.72460000  0.69230000  0.02910000  1
  C  C978  1  0.73280000  0.65870000  0.02830000  1
  C  C979  1  0.33810000  0.80680000  0.96860000  1
  C  C980  1  0.35650000  0.83600000  0.96930000  1
  C  C981  1  0.36600000  0.85270000  0.93840000  1
  C  C982  1  0.41620000  0.91400000  0.90590000  1
  C  C983  1  0.39530000  0.88930000  0.89460000  1
  C  C984  1  0.39170000  0.88400000  0.86100000  1
  C  C985  1  0.40910000  0.90320000  0.83860000  1
  C  C986  1  0.43010000  0.92790000  0.84990000  1
  C  C987  1  0.43360000  0.93330000  0.88360000  1
  C  C988  1  0.44770000  0.94910000  0.82690000  1
  C  C989  1  0.37400000  0.87160000  0.91850000  1
  C  C990  1  0.27540000  0.69230000  0.97090000  1
  C  C991  1  0.26720000  0.65870000  0.97170000  1
  C  C992  1  0.19320000  0.96860000  0.66190000  1
  C  C993  1  0.16400000  0.96930000  0.64350000  1
  C  C994  1  0.14730000  0.93840000  0.63400000  1
  C  C995  1  0.08600000  0.90590000  0.58380000  1
  C  C996  1  0.11070000  0.89460000  0.60470000  1
  C  C997  1  0.11600000  0.86100000  0.60830000  1
  C  C998  1  0.09680000  0.83860000  0.59090000  1
  C  C999  1  0.07210000  0.84990000  0.56990000  1
  C  C1000  1  0.06670000  0.88360000  0.56640000  1
  C  C1001  1  0.05090000  0.82690000  0.55230000  1
  C  C1002  1  0.12840000  0.91850000  0.62600000  1
  C  C1003  1  0.30770000  0.97090000  0.72460000  1
  C  C1004  1  0.34130000  0.97170000  0.73280000  1
  C  C1005  1  0.19320000  0.03140000  0.33810000  1
  C  C1006  1  0.16400000  0.03070000  0.35650000  1
  C  C1007  1  0.14730000  0.06160000  0.36600000  1
  C  C1008  1  0.08600000  0.09410000  0.41620000  1
  C  C1009  1  0.11070000  0.10540000  0.39530000  1
  C  C1010  1  0.11600000  0.13900000  0.39170000  1
  C  C1011  1  0.09680000  0.16140000  0.40910000  1
  C  C1012  1  0.07210000  0.15010000  0.43010000  1
  C  C1013  1  0.06670000  0.11640000  0.43360000  1
  C  C1014  1  0.05090000  0.17310000  0.44770000  1
  C  C1015  1  0.12840000  0.08150000  0.37400000  1
  C  C1016  1  0.30770000  0.02910000  0.27540000  1
  C  C1017  1  0.34130000  0.02830000  0.26720000  1
  C  C1018  1  0.80680000  0.96860000  0.33810000  1
  C  C1019  1  0.83600000  0.96930000  0.35650000  1
  C  C1020  1  0.85270000  0.93840000  0.36600000  1
  C  C1021  1  0.91400000  0.90590000  0.41620000  1
  C  C1022  1  0.88930000  0.89460000  0.39530000  1
  C  C1023  1  0.88400000  0.86100000  0.39170000  1
  C  C1024  1  0.90320000  0.83860000  0.40910000  1
  C  C1025  1  0.92790000  0.84990000  0.43010000  1
  C  C1026  1  0.93330000  0.88360000  0.43360000  1
  C  C1027  1  0.94910000  0.82690000  0.44770000  1
  C  C1028  1  0.87160000  0.91850000  0.37400000  1
  C  C1029  1  0.69230000  0.97090000  0.27540000  1
  C  C1030  1  0.65870000  0.97170000  0.26720000  1
  C  C1031  1  0.80680000  0.03140000  0.66190000  1
  C  C1032  1  0.83600000  0.03070000  0.64350000  1
  C  C1033  1  0.85270000  0.06160000  0.63400000  1
  C  C1034  1  0.91400000  0.09410000  0.58380000  1
  C  C1035  1  0.88930000  0.10540000  0.60470000  1
  C  C1036  1  0.88400000  0.13900000  0.60830000  1
  C  C1037  1  0.90320000  0.16140000  0.59090000  1
  C  C1038  1  0.92790000  0.15010000  0.56990000  1
  C  C1039  1  0.93330000  0.11640000  0.56640000  1
  C  C1040  1  0.94910000  0.17310000  0.55230000  1
  C  C1041  1  0.87160000  0.08150000  0.62600000  1
  C  C1042  1  0.69230000  0.02910000  0.72460000  1
  C  C1043  1  0.65870000  0.02830000  0.73280000  1
  C  C1044  1  0.24500000  0.50000000  0.10300000  1
  C  C1045  1  0.18990000  0.50000000  0.26390000  1
  C  C1046  1  0.21630000  0.50000000  0.20720000  1
  C  C1047  1  0.20060000  0.50000000  0.23870000  1
  C  C1048  1  0.13530000  0.50000000  0.35160000  1
  C  C1049  1  0.17210000  0.50000000  0.29490000  1
  C  C1050  1  0.23200000  0.50000000  0.14090000  1
  C  C1051  1  0.75500000  0.50000000  0.10300000  1
  C  C1052  1  0.81010000  0.50000000  0.26390000  1
  C  C1053  1  0.78370000  0.50000000  0.20720000  1
  C  C1054  1  0.79940000  0.50000000  0.23870000  1
  C  C1055  1  0.86470000  0.50000000  0.35160000  1
  C  C1056  1  0.82790000  0.50000000  0.29490000  1
  C  C1057  1  0.76800000  0.50000000  0.14090000  1
  C  C1058  1  0.75500000  0.50000000  0.89700000  1
  C  C1059  1  0.81010000  0.50000000  0.73610000  1
  C  C1060  1  0.78370000  0.50000000  0.79280000  1
  C  C1061  1  0.79940000  0.50000000  0.76130000  1
  C  C1062  1  0.86470000  0.50000000  0.64840000  1
  C  C1063  1  0.82790000  0.50000000  0.70510000  1
  C  C1064  1  0.76800000  0.50000000  0.85910000  1
  C  C1065  1  0.24500000  0.50000000  0.89700000  1
  C  C1066  1  0.18990000  0.50000000  0.73610000  1
  C  C1067  1  0.21630000  0.50000000  0.79280000  1
  C  C1068  1  0.20060000  0.50000000  0.76130000  1
  C  C1069  1  0.13530000  0.50000000  0.64840000  1
  C  C1070  1  0.17210000  0.50000000  0.70510000  1
  C  C1071  1  0.23200000  0.50000000  0.85910000  1
  C  C1072  1  0.10300000  0.24500000  0.50000000  1
  C  C1073  1  0.26390000  0.18990000  0.50000000  1
  C  C1074  1  0.20720000  0.21630000  0.50000000  1
  C  C1075  1  0.23870000  0.20060000  0.50000000  1
  C  C1076  1  0.35160000  0.13530000  0.50000000  1
  C  C1077  1  0.29490000  0.17210000  0.50000000  1
  C  C1078  1  0.14090000  0.23200000  0.50000000  1
  C  C1079  1  0.10300000  0.75500000  0.50000000  1
  C  C1080  1  0.26390000  0.81010000  0.50000000  1
  C  C1081  1  0.20720000  0.78370000  0.50000000  1
  C  C1082  1  0.23870000  0.79940000  0.50000000  1
  C  C1083  1  0.35160000  0.86470000  0.50000000  1
  C  C1084  1  0.29490000  0.82790000  0.50000000  1
  C  C1085  1  0.14090000  0.76800000  0.50000000  1
  C  C1086  1  0.89700000  0.75500000  0.50000000  1
  C  C1087  1  0.73610000  0.81010000  0.50000000  1
  C  C1088  1  0.79280000  0.78370000  0.50000000  1
  C  C1089  1  0.76130000  0.79940000  0.50000000  1
  C  C1090  1  0.64840000  0.86470000  0.50000000  1
  C  C1091  1  0.70510000  0.82790000  0.50000000  1
  C  C1092  1  0.85910000  0.76800000  0.50000000  1
  C  C1093  1  0.89700000  0.24500000  0.50000000  1
  C  C1094  1  0.73610000  0.18990000  0.50000000  1
  C  C1095  1  0.79280000  0.21630000  0.50000000  1
  C  C1096  1  0.76130000  0.20060000  0.50000000  1
  C  C1097  1  0.64840000  0.13530000  0.50000000  1
  C  C1098  1  0.70510000  0.17210000  0.50000000  1
  C  C1099  1  0.85910000  0.23200000  0.50000000  1
  C  C1100  1  0.50000000  0.10300000  0.24500000  1
  C  C1101  1  0.50000000  0.26390000  0.18990000  1
  C  C1102  1  0.50000000  0.20720000  0.21630000  1
  C  C1103  1  0.50000000  0.23870000  0.20060000  1
  C  C1104  1  0.50000000  0.35160000  0.13530000  1
  C  C1105  1  0.50000000  0.29490000  0.17210000  1
  C  C1106  1  0.50000000  0.14090000  0.23200000  1
  C  C1107  1  0.50000000  0.10300000  0.75500000  1
  C  C1108  1  0.50000000  0.26390000  0.81010000  1
  C  C1109  1  0.50000000  0.20720000  0.78370000  1
  C  C1110  1  0.50000000  0.23870000  0.79940000  1
  C  C1111  1  0.50000000  0.35160000  0.86470000  1
  C  C1112  1  0.50000000  0.29490000  0.82790000  1
  C  C1113  1  0.50000000  0.14090000  0.76800000  1
  C  C1114  1  0.50000000  0.89700000  0.75500000  1
  C  C1115  1  0.50000000  0.73610000  0.81010000  1
  C  C1116  1  0.50000000  0.79280000  0.78370000  1
  C  C1117  1  0.50000000  0.76130000  0.79940000  1
  C  C1118  1  0.50000000  0.64840000  0.86470000  1
  C  C1119  1  0.50000000  0.70510000  0.82790000  1
  C  C1120  1  0.50000000  0.85910000  0.76800000  1
  C  C1121  1  0.50000000  0.89700000  0.24500000  1
  C  C1122  1  0.50000000  0.73610000  0.18990000  1
  C  C1123  1  0.50000000  0.79280000  0.21630000  1
  C  C1124  1  0.50000000  0.76130000  0.20060000  1
  C  C1125  1  0.50000000  0.64840000  0.13530000  1
  C  C1126  1  0.50000000  0.70510000  0.17210000  1
  C  C1127  1  0.50000000  0.85910000  0.23200000  1
  C  C1128  1  0.00000000  0.74500000  0.39700000  1
  C  C1129  1  0.00000000  0.68990000  0.23610000  1
  C  C1130  1  0.00000000  0.71630000  0.29280000  1
  C  C1131  1  0.00000000  0.70060000  0.26130000  1
  C  C1132  1  0.00000000  0.63530000  0.14840000  1
  C  C1133  1  0.00000000  0.67210000  0.20510000  1
  C  C1134  1  0.00000000  0.73200000  0.35910000  1
  C  C1135  1  0.00000000  0.25500000  0.39700000  1
  C  C1136  1  0.00000000  0.31010000  0.23610000  1
  C  C1137  1  0.00000000  0.28370000  0.29280000  1
  C  C1138  1  0.00000000  0.29940000  0.26130000  1
  C  C1139  1  0.00000000  0.36470000  0.14840000  1
  C  C1140  1  0.00000000  0.32790000  0.20510000  1
  C  C1141  1  0.00000000  0.26800000  0.35910000  1
  C  C1142  1  0.00000000  0.25500000  0.60300000  1
  C  C1143  1  0.00000000  0.31010000  0.76390000  1
  C  C1144  1  0.00000000  0.28370000  0.70720000  1
  C  C1145  1  0.00000000  0.29940000  0.73870000  1
  C  C1146  1  0.00000000  0.36470000  0.85160000  1
  C  C1147  1  0.00000000  0.32790000  0.79490000  1
  C  C1148  1  0.00000000  0.26800000  0.64090000  1
  C  C1149  1  0.00000000  0.74500000  0.60300000  1
  C  C1150  1  0.00000000  0.68990000  0.76390000  1
  C  C1151  1  0.00000000  0.71630000  0.70720000  1
  C  C1152  1  0.00000000  0.70060000  0.73870000  1
  C  C1153  1  0.00000000  0.63530000  0.85160000  1
  C  C1154  1  0.00000000  0.67210000  0.79490000  1
  C  C1155  1  0.00000000  0.73200000  0.64090000  1
  C  C1156  1  0.74500000  0.60300000  0.00000000  1
  C  C1157  1  0.68990000  0.76390000  0.00000000  1
  C  C1158  1  0.71630000  0.70720000  0.00000000  1
  C  C1159  1  0.70060000  0.73870000  0.00000000  1
  C  C1160  1  0.63530000  0.85160000  0.00000000  1
  C  C1161  1  0.67210000  0.79490000  0.00000000  1
  C  C1162  1  0.73200000  0.64090000  0.00000000  1
  C  C1163  1  0.25500000  0.60300000  0.00000000  1
  C  C1164  1  0.31010000  0.76390000  0.00000000  1
  C  C1165  1  0.28370000  0.70720000  0.00000000  1
  C  C1166  1  0.29940000  0.73870000  0.00000000  1
  C  C1167  1  0.36470000  0.85160000  0.00000000  1
  C  C1168  1  0.32790000  0.79490000  0.00000000  1
  C  C1169  1  0.26800000  0.64090000  0.00000000  1
  C  C1170  1  0.25500000  0.39700000  0.00000000  1
  C  C1171  1  0.31010000  0.23610000  0.00000000  1
  C  C1172  1  0.28370000  0.29280000  0.00000000  1
  C  C1173  1  0.29940000  0.26130000  0.00000000  1
  C  C1174  1  0.36470000  0.14840000  0.00000000  1
  C  C1175  1  0.32790000  0.20510000  0.00000000  1
  C  C1176  1  0.26800000  0.35910000  0.00000000  1
  C  C1177  1  0.74500000  0.39700000  0.00000000  1
  C  C1178  1  0.68990000  0.23610000  0.00000000  1
  C  C1179  1  0.71630000  0.29280000  0.00000000  1
  C  C1180  1  0.70060000  0.26130000  0.00000000  1
  C  C1181  1  0.63530000  0.14840000  0.00000000  1
  C  C1182  1  0.67210000  0.20510000  0.00000000  1
  C  C1183  1  0.73200000  0.35910000  0.00000000  1
  C  C1184  1  0.60300000  0.00000000  0.25500000  1
  C  C1185  1  0.76390000  0.00000000  0.31010000  1
  C  C1186  1  0.70720000  0.00000000  0.28370000  1
  C  C1187  1  0.73870000  0.00000000  0.29940000  1
  C  C1188  1  0.85160000  0.00000000  0.36470000  1
  C  C1189  1  0.79490000  0.00000000  0.32790000  1
  C  C1190  1  0.64090000  0.00000000  0.26800000  1
  C  C1191  1  0.60300000  0.00000000  0.74500000  1
  C  C1192  1  0.76390000  0.00000000  0.68990000  1
  C  C1193  1  0.70720000  0.00000000  0.71630000  1
  C  C1194  1  0.73870000  0.00000000  0.70060000  1
  C  C1195  1  0.85160000  0.00000000  0.63530000  1
  C  C1196  1  0.79490000  0.00000000  0.67210000  1
  C  C1197  1  0.64090000  0.00000000  0.73200000  1
  C  C1198  1  0.39700000  0.00000000  0.74500000  1
  C  C1199  1  0.23610000  0.00000000  0.68990000  1
  C  C1200  1  0.29280000  0.00000000  0.71630000  1
  C  C1201  1  0.26130000  0.00000000  0.70060000  1
  C  C1202  1  0.14840000  0.00000000  0.63530000  1
  C  C1203  1  0.20510000  0.00000000  0.67210000  1
  C  C1204  1  0.35910000  0.00000000  0.73200000  1
  C  C1205  1  0.39700000  0.00000000  0.25500000  1
  C  C1206  1  0.23610000  0.00000000  0.31010000  1
  C  C1207  1  0.29280000  0.00000000  0.28370000  1
  C  C1208  1  0.26130000  0.00000000  0.29940000  1
  C  C1209  1  0.14840000  0.00000000  0.36470000  1
  C  C1210  1  0.20510000  0.00000000  0.32790000  1
  C  C1211  1  0.35910000  0.00000000  0.26800000  1
  O  O1212  1  0.03150000  0.66000000  0.46910000  1
  O  O1213  1  0.06270000  0.70570000  0.43570000  1
  O  O1214  1  0.24820000  0.46890000  0.09470000  1
  O  O1215  1  0.96850000  0.34000000  0.46910000  1
  O  O1216  1  0.93730000  0.29430000  0.43570000  1
  O  O1217  1  0.75180000  0.53110000  0.09470000  1
  O  O1218  1  0.96850000  0.66000000  0.53090000  1
  O  O1219  1  0.93730000  0.70570000  0.56430000  1
  O  O1220  1  0.75180000  0.46890000  0.90530000  1
  O  O1221  1  0.03150000  0.34000000  0.53090000  1
  O  O1222  1  0.06270000  0.29430000  0.56430000  1
  O  O1223  1  0.24820000  0.53110000  0.90530000  1
  O  O1224  1  0.46910000  0.03150000  0.66000000  1
  O  O1225  1  0.43570000  0.06270000  0.70570000  1
  O  O1226  1  0.09470000  0.24820000  0.46890000  1
  O  O1227  1  0.46910000  0.96850000  0.34000000  1
  O  O1228  1  0.43570000  0.93730000  0.29430000  1
  O  O1229  1  0.09470000  0.75180000  0.53110000  1
  O  O1230  1  0.53090000  0.96850000  0.66000000  1
  O  O1231  1  0.56430000  0.93730000  0.70570000  1
  O  O1232  1  0.90530000  0.75180000  0.46890000  1
  O  O1233  1  0.53090000  0.03150000  0.34000000  1
  O  O1234  1  0.56430000  0.06270000  0.29430000  1
  O  O1235  1  0.90530000  0.24820000  0.53110000  1
  O  O1236  1  0.66000000  0.46910000  0.03150000  1
  O  O1237  1  0.70570000  0.43570000  0.06270000  1
  O  O1238  1  0.46890000  0.09470000  0.24820000  1
  O  O1239  1  0.34000000  0.46910000  0.96850000  1
  O  O1240  1  0.29430000  0.43570000  0.93730000  1
  O  O1241  1  0.53110000  0.09470000  0.75180000  1
  O  O1242  1  0.66000000  0.53090000  0.96850000  1
  O  O1243  1  0.70570000  0.56430000  0.93730000  1
  O  O1244  1  0.46890000  0.90530000  0.75180000  1
  O  O1245  1  0.34000000  0.53090000  0.03150000  1
  O  O1246  1  0.29430000  0.56430000  0.06270000  1
  O  O1247  1  0.53110000  0.90530000  0.24820000  1
  O  O1248  1  0.16000000  0.53150000  0.03090000  1
  O  O1249  1  0.20570000  0.56270000  0.06430000  1
  O  O1250  1  0.96890000  0.74820000  0.40530000  1
  O  O1251  1  0.84000000  0.46850000  0.03090000  1
  O  O1252  1  0.79430000  0.43730000  0.06430000  1
  O  O1253  1  0.03110000  0.25180000  0.40530000  1
  O  O1254  1  0.16000000  0.46850000  0.96910000  1
  O  O1255  1  0.20570000  0.43730000  0.93570000  1
  O  O1256  1  0.96890000  0.25180000  0.59470000  1
  O  O1257  1  0.84000000  0.53150000  0.96910000  1
  O  O1258  1  0.79430000  0.56270000  0.93570000  1
  O  O1259  1  0.03110000  0.74820000  0.59470000  1
  O  O1260  1  0.53150000  0.96910000  0.84000000  1
  O  O1261  1  0.56270000  0.93570000  0.79430000  1
  O  O1262  1  0.74820000  0.59470000  0.03110000  1
  O  O1263  1  0.46850000  0.96910000  0.16000000  1
  O  O1264  1  0.43730000  0.93570000  0.20570000  1
  O  O1265  1  0.25180000  0.59470000  0.96890000  1
  O  O1266  1  0.46850000  0.03090000  0.84000000  1
  O  O1267  1  0.43730000  0.06430000  0.79430000  1
  O  O1268  1  0.25180000  0.40530000  0.03110000  1
  O  O1269  1  0.53150000  0.03090000  0.16000000  1
  O  O1270  1  0.56270000  0.06430000  0.20570000  1
  O  O1271  1  0.74820000  0.40530000  0.96890000  1
  O  O1272  1  0.96910000  0.16000000  0.46850000  1
  O  O1273  1  0.93570000  0.20570000  0.43730000  1
  O  O1274  1  0.59470000  0.96890000  0.25180000  1
  O  O1275  1  0.96910000  0.84000000  0.53150000  1
  O  O1276  1  0.93570000  0.79430000  0.56270000  1
  O  O1277  1  0.59470000  0.03110000  0.74820000  1
  O  O1278  1  0.03090000  0.16000000  0.53150000  1
  O  O1279  1  0.06430000  0.20570000  0.56270000  1
  O  O1280  1  0.40530000  0.96890000  0.74820000  1
  O  O1281  1  0.03090000  0.84000000  0.46850000  1
  O  O1282  1  0.06430000  0.79430000  0.43730000  1
  O  O1283  1  0.40530000  0.03110000  0.25180000  1
  O  O1284  1  0.96850000  0.34000000  0.53090000  1
  O  O1285  1  0.93730000  0.29430000  0.56430000  1
  O  O1286  1  0.75180000  0.53110000  0.90530000  1
  O  O1287  1  0.03150000  0.66000000  0.53090000  1
  O  O1288  1  0.06270000  0.70570000  0.56430000  1
  O  O1289  1  0.24820000  0.46890000  0.90530000  1
  O  O1290  1  0.03150000  0.34000000  0.46910000  1
  O  O1291  1  0.06270000  0.29430000  0.43570000  1
  O  O1292  1  0.24820000  0.53110000  0.09470000  1
  O  O1293  1  0.96850000  0.66000000  0.46910000  1
  O  O1294  1  0.93730000  0.70570000  0.43570000  1
  O  O1295  1  0.75180000  0.46890000  0.09470000  1
  O  O1296  1  0.53090000  0.96850000  0.34000000  1
  O  O1297  1  0.56430000  0.93730000  0.29430000  1
  O  O1298  1  0.90530000  0.75180000  0.53110000  1
  O  O1299  1  0.53090000  0.03150000  0.66000000  1
  O  O1300  1  0.56430000  0.06270000  0.70570000  1
  O  O1301  1  0.90530000  0.24820000  0.46890000  1
  O  O1302  1  0.46910000  0.03150000  0.34000000  1
  O  O1303  1  0.43570000  0.06270000  0.29430000  1
  O  O1304  1  0.09470000  0.24820000  0.53110000  1
  O  O1305  1  0.46910000  0.96850000  0.66000000  1
  O  O1306  1  0.43570000  0.93730000  0.70570000  1
  O  O1307  1  0.09470000  0.75180000  0.46890000  1
  O  O1308  1  0.34000000  0.53090000  0.96850000  1
  O  O1309  1  0.29430000  0.56430000  0.93730000  1
  O  O1310  1  0.53110000  0.90530000  0.75180000  1
  O  O1311  1  0.66000000  0.53090000  0.03150000  1
  O  O1312  1  0.70570000  0.56430000  0.06270000  1
  O  O1313  1  0.46890000  0.90530000  0.24820000  1
  O  O1314  1  0.34000000  0.46910000  0.03150000  1
  O  O1315  1  0.29430000  0.43570000  0.06270000  1
  O  O1316  1  0.53110000  0.09470000  0.24820000  1
  O  O1317  1  0.66000000  0.46910000  0.96850000  1
  O  O1318  1  0.70570000  0.43570000  0.93730000  1
  O  O1319  1  0.46890000  0.09470000  0.75180000  1
  O  O1320  1  0.84000000  0.46850000  0.96910000  1
  O  O1321  1  0.79430000  0.43730000  0.93570000  1
  O  O1322  1  0.03110000  0.25180000  0.59470000  1
  O  O1323  1  0.16000000  0.53150000  0.96910000  1
  O  O1324  1  0.20570000  0.56270000  0.93570000  1
  O  O1325  1  0.96890000  0.74820000  0.59470000  1
  O  O1326  1  0.84000000  0.53150000  0.03090000  1
  O  O1327  1  0.79430000  0.56270000  0.06430000  1
  O  O1328  1  0.03110000  0.74820000  0.40530000  1
  O  O1329  1  0.16000000  0.46850000  0.03090000  1
  O  O1330  1  0.20570000  0.43730000  0.06430000  1
  O  O1331  1  0.96890000  0.25180000  0.40530000  1
  O  O1332  1  0.46850000  0.03090000  0.16000000  1
  O  O1333  1  0.43730000  0.06430000  0.20570000  1
  O  O1334  1  0.25180000  0.40530000  0.96890000  1
  O  O1335  1  0.53150000  0.03090000  0.84000000  1
  O  O1336  1  0.56270000  0.06430000  0.79430000  1
  O  O1337  1  0.74820000  0.40530000  0.03110000  1
  O  O1338  1  0.53150000  0.96910000  0.16000000  1
  O  O1339  1  0.56270000  0.93570000  0.20570000  1
  O  O1340  1  0.74820000  0.59470000  0.96890000  1
  O  O1341  1  0.46850000  0.96910000  0.84000000  1
  O  O1342  1  0.43730000  0.93570000  0.79430000  1
  O  O1343  1  0.25180000  0.59470000  0.03110000  1
  O  O1344  1  0.03090000  0.84000000  0.53150000  1
  O  O1345  1  0.06430000  0.79430000  0.56270000  1
  O  O1346  1  0.40530000  0.03110000  0.74820000  1
  O  O1347  1  0.03090000  0.16000000  0.46850000  1
  O  O1348  1  0.06430000  0.20570000  0.43730000  1
  O  O1349  1  0.40530000  0.96890000  0.25180000  1
  O  O1350  1  0.96910000  0.84000000  0.46850000  1
  O  O1351  1  0.93570000  0.79430000  0.43730000  1
  O  O1352  1  0.59470000  0.03110000  0.25180000  1
  O  O1353  1  0.96910000  0.16000000  0.53150000  1
  O  O1354  1  0.93570000  0.20570000  0.56270000  1
  O  O1355  1  0.59470000  0.96890000  0.74820000  1
  O  O1356  1  0.04040000  0.71450000  0.50000000  1
  O  O1357  1  0.95960000  0.28550000  0.50000000  1
  O  O1358  1  0.95960000  0.71450000  0.50000000  1
  O  O1359  1  0.04040000  0.28550000  0.50000000  1
  O  O1360  1  0.50000000  0.04040000  0.71450000  1
  O  O1361  1  0.50000000  0.95960000  0.28550000  1
  O  O1362  1  0.50000000  0.95960000  0.71450000  1
  O  O1363  1  0.50000000  0.04040000  0.28550000  1
  O  O1364  1  0.71450000  0.50000000  0.04040000  1
  O  O1365  1  0.28550000  0.50000000  0.95960000  1
  O  O1366  1  0.71450000  0.50000000  0.95960000  1
  O  O1367  1  0.28550000  0.50000000  0.04040000  1
  O  O1368  1  0.21450000  0.54040000  0.00000000  1
  O  O1369  1  0.78550000  0.45960000  0.00000000  1
  O  O1370  1  0.21450000  0.45960000  0.00000000  1
  O  O1371  1  0.78550000  0.54040000  0.00000000  1
  O  O1372  1  0.54040000  0.00000000  0.78550000  1
  O  O1373  1  0.45960000  0.00000000  0.21450000  1
  O  O1374  1  0.45960000  0.00000000  0.78550000  1
  O  O1375  1  0.54040000  0.00000000  0.21450000  1
  O  O1376  1  0.00000000  0.21450000  0.45960000  1
  O  O1377  1  0.00000000  0.78550000  0.54040000  1
  O  O1378  1  0.00000000  0.21450000  0.54040000  1
  O  O1379  1  0.00000000  0.78550000  0.45960000  1
  O  O1380  1  0.00000000  0.72630000  0.46170000  1
  O  O1381  1  0.00000000  0.27370000  0.46170000  1
  O  O1382  1  0.00000000  0.72630000  0.53830000  1
  O  O1383  1  0.00000000  0.27370000  0.53830000  1
  O  O1384  1  0.46170000  0.00000000  0.72630000  1
  O  O1385  1  0.46170000  0.00000000  0.27370000  1
  O  O1386  1  0.53830000  0.00000000  0.72630000  1
  O  O1387  1  0.53830000  0.00000000  0.27370000  1
  O  O1388  1  0.72630000  0.46170000  0.00000000  1
  O  O1389  1  0.27370000  0.46170000  0.00000000  1
  O  O1390  1  0.72630000  0.53830000  0.00000000  1
  O  O1391  1  0.27370000  0.53830000  0.00000000  1
  O  O1392  1  0.22630000  0.50000000  0.03830000  1
  O  O1393  1  0.77370000  0.50000000  0.03830000  1
  O  O1394  1  0.22630000  0.50000000  0.96170000  1
  O  O1395  1  0.77370000  0.50000000  0.96170000  1
  O  O1396  1  0.50000000  0.96170000  0.77370000  1
  O  O1397  1  0.50000000  0.96170000  0.22630000  1
  O  O1398  1  0.50000000  0.03830000  0.77370000  1
  O  O1399  1  0.50000000  0.03830000  0.22630000  1
  O  O1400  1  0.96170000  0.22630000  0.50000000  1
  O  O1401  1  0.96170000  0.77370000  0.50000000  1
  O  O1402  1  0.03830000  0.22630000  0.50000000  1
  O  O1403  1  0.03830000  0.77370000  0.50000000  1
