# generated using pymatgen
data_Zr18H254C361O96
_symmetry_space_group_name_H-M   'P 1'
_cell_length_a   38.76400000
_cell_length_b   38.76400000
_cell_length_c   38.76400000
_cell_angle_alpha   90.00000000
_cell_angle_beta   90.00000000
_cell_angle_gamma   90.00000000
_symmetry_Int_Tables_number   1
_chemical_formula_structural   Zr18H254C361O96
_chemical_formula_sum   'Zr36 H508 C722 O192'
_cell_volume   58248.63528774
_cell_formula_units_Z   2
loop_
 _symmetry_equiv_pos_site_id
 _symmetry_equiv_pos_as_xyz
  1  'x, y, z'
loop_
 _atom_site_type_symbol
 _atom_site_label
 _atom_site_symmetry_multiplicity
 _atom_site_fract_x
 _atom_site_fract_y
 _atom_site_fract_z
 _atom_site_occupancy
  Zr  Zr0  1  0.50000000  0.06262000  0.50000000  1
  Zr  Zr1  1  0.50000000  0.93738000  0.50000000  1
  Zr  Zr2  1  0.50000000  0.50000000  0.06262000  1
  Zr  Zr3  1  0.50000000  0.50000000  0.93738000  1
  Zr  Zr4  1  0.06262000  0.50000000  0.50000000  1
  Zr  Zr5  1  0.93738000  0.50000000  0.50000000  1
  Zr  Zr6  1  0.54537000  0.00000000  0.54537000  1
  Zr  Zr7  1  0.45463000  0.00000000  0.54537000  1
  Zr  Zr8  1  0.45463000  0.00000000  0.45463000  1
  Zr  Zr9  1  0.54537000  0.00000000  0.45463000  1
  Zr  Zr10  1  0.54537000  0.54537000  0.00000000  1
  Zr  Zr11  1  0.54537000  0.45463000  0.00000000  1
  Zr  Zr12  1  0.45463000  0.45463000  0.00000000  1
  Zr  Zr13  1  0.45463000  0.54537000  0.00000000  1
  Zr  Zr14  1  0.00000000  0.54537000  0.54537000  1
  Zr  Zr15  1  0.00000000  0.54537000  0.45463000  1
  Zr  Zr16  1  0.00000000  0.45463000  0.45463000  1
  Zr  Zr17  1  0.00000000  0.45463000  0.54537000  1
  Zr  Zr18  1  0.00000000  0.00000000  0.56410000  1
  Zr  Zr19  1  0.00000000  0.00000000  0.43590000  1
  Zr  Zr20  1  0.56410000  0.00000000  0.00000000  1
  Zr  Zr21  1  0.43590000  0.00000000  0.00000000  1
  Zr  Zr22  1  0.00000000  0.56410000  0.00000000  1
  Zr  Zr23  1  0.00000000  0.43590000  0.00000000  1
  Zr  Zr24  1  0.95300000  0.04700000  0.50000000  1
  Zr  Zr25  1  0.04700000  0.95300000  0.50000000  1
  Zr  Zr26  1  0.04700000  0.04700000  0.50000000  1
  Zr  Zr27  1  0.95300000  0.95300000  0.50000000  1
  Zr  Zr28  1  0.50000000  0.95300000  0.04700000  1
  Zr  Zr29  1  0.50000000  0.04700000  0.95300000  1
  Zr  Zr30  1  0.50000000  0.04700000  0.04700000  1
  Zr  Zr31  1  0.50000000  0.95300000  0.95300000  1
  Zr  Zr32  1  0.04700000  0.50000000  0.95300000  1
  Zr  Zr33  1  0.95300000  0.50000000  0.04700000  1
  Zr  Zr34  1  0.04700000  0.50000000  0.04700000  1
  Zr  Zr35  1  0.95300000  0.50000000  0.95300000  1
  H  H36  1  0.32548000  0.82712000  0.61985000  1
  H  H37  1  0.29451000  0.77603000  0.64614000  1
  H  H38  1  0.39726000  0.72596000  0.66506000  1
  H  H39  1  0.42165000  0.78295000  0.64320000  1
  H  H40  1  0.67452000  0.82712000  0.38015000  1
  H  H41  1  0.70549000  0.77603000  0.35386000  1
  H  H42  1  0.60274000  0.72596000  0.33494000  1
  H  H43  1  0.57835000  0.78295000  0.35680000  1
  H  H44  1  0.61985000  0.67452000  0.17288000  1
  H  H45  1  0.64614000  0.70549000  0.22397000  1
  H  H46  1  0.66506000  0.60274000  0.27404000  1
  H  H47  1  0.64320000  0.57835000  0.21705000  1
  H  H48  1  0.38015000  0.67452000  0.82712000  1
  H  H49  1  0.35386000  0.70549000  0.77603000  1
  H  H50  1  0.33494000  0.60274000  0.72596000  1
  H  H51  1  0.35680000  0.57835000  0.78295000  1
  H  H52  1  0.17288000  0.61985000  0.67452000  1
  H  H53  1  0.22397000  0.64614000  0.70549000  1
  H  H54  1  0.27404000  0.66506000  0.60274000  1
  H  H55  1  0.21705000  0.64320000  0.57835000  1
  H  H56  1  0.17638000  0.37404000  0.31899000  1
  H  H57  1  0.27122000  0.32450000  0.39270000  1
  H  H58  1  0.82712000  0.32548000  0.38015000  1
  H  H59  1  0.77603000  0.29451000  0.35386000  1
  H  H60  1  0.72596000  0.39726000  0.33494000  1
  H  H61  1  0.78295000  0.42165000  0.35680000  1
  H  H62  1  0.17288000  0.32548000  0.61985000  1
  H  H63  1  0.22397000  0.29451000  0.64614000  1
  H  H64  1  0.27404000  0.39726000  0.66506000  1
  H  H65  1  0.21705000  0.42165000  0.64320000  1
  H  H66  1  0.82712000  0.67452000  0.61985000  1
  H  H67  1  0.77603000  0.70549000  0.64614000  1
  H  H68  1  0.72596000  0.60274000  0.66506000  1
  H  H69  1  0.78295000  0.57835000  0.64320000  1
  H  H70  1  0.32548000  0.38015000  0.82712000  1
  H  H71  1  0.29451000  0.35386000  0.77603000  1
  H  H72  1  0.39726000  0.33494000  0.72596000  1
  H  H73  1  0.42165000  0.35680000  0.78295000  1
  H  H74  1  0.67452000  0.38015000  0.17288000  1
  H  H75  1  0.70549000  0.35386000  0.22397000  1
  H  H76  1  0.60274000  0.33494000  0.27404000  1
  H  H77  1  0.57835000  0.35680000  0.21705000  1
  H  H78  1  0.61985000  0.17288000  0.32548000  1
  H  H79  1  0.64614000  0.22397000  0.29451000  1
  H  H80  1  0.66506000  0.27404000  0.39726000  1
  H  H81  1  0.64320000  0.21705000  0.42165000  1
  H  H82  1  0.38015000  0.17288000  0.67452000  1
  H  H83  1  0.35386000  0.22397000  0.70549000  1
  H  H84  1  0.33494000  0.27404000  0.60274000  1
  H  H85  1  0.35680000  0.21705000  0.57835000  1
  H  H86  1  0.38015000  0.82712000  0.32548000  1
  H  H87  1  0.35386000  0.77603000  0.29451000  1
  H  H88  1  0.33494000  0.72596000  0.39726000  1
  H  H89  1  0.35680000  0.78295000  0.42165000  1
  H  H90  1  0.67452000  0.82712000  0.61985000  1
  H  H91  1  0.70549000  0.77603000  0.64614000  1
  H  H92  1  0.60274000  0.72596000  0.66506000  1
  H  H93  1  0.57835000  0.78295000  0.64320000  1
  H  H94  1  0.38015000  0.67452000  0.17288000  1
  H  H95  1  0.35386000  0.70549000  0.22397000  1
  H  H96  1  0.33494000  0.60274000  0.27404000  1
  H  H97  1  0.35680000  0.57835000  0.21705000  1
  H  H98  1  0.61985000  0.67452000  0.82712000  1
  H  H99  1  0.64614000  0.70549000  0.77603000  1
  H  H100  1  0.66506000  0.60274000  0.72596000  1
  H  H101  1  0.64320000  0.57835000  0.78295000  1
  H  H102  1  0.17288000  0.61985000  0.32548000  1
  H  H103  1  0.22397000  0.64614000  0.29451000  1
  H  H104  1  0.27404000  0.66506000  0.39726000  1
  H  H105  1  0.21705000  0.64320000  0.42165000  1
  H  H106  1  0.82712000  0.32548000  0.61985000  1
  H  H107  1  0.77603000  0.29451000  0.64614000  1
  H  H108  1  0.72596000  0.39726000  0.66506000  1
  H  H109  1  0.78295000  0.42165000  0.64320000  1
  H  H110  1  0.82712000  0.67452000  0.38015000  1
  H  H111  1  0.77603000  0.70549000  0.35386000  1
  H  H112  1  0.72596000  0.60274000  0.33494000  1
  H  H113  1  0.78295000  0.57835000  0.35680000  1
  H  H114  1  0.17061000  0.32519000  0.37111000  1
  H  H115  1  0.22217000  0.29451000  0.35321000  1
  H  H116  1  0.27478000  0.38592000  0.35955000  1
  H  H117  1  0.21712000  0.42137000  0.35235000  1
  H  H118  1  0.32548000  0.38015000  0.17288000  1
  H  H119  1  0.29451000  0.35386000  0.22397000  1
  H  H120  1  0.39726000  0.33494000  0.27404000  1
  H  H121  1  0.42165000  0.35680000  0.21705000  1
  H  H122  1  0.67452000  0.38015000  0.82712000  1
  H  H123  1  0.70549000  0.35386000  0.77603000  1
  H  H124  1  0.60274000  0.33494000  0.72596000  1
  H  H125  1  0.57835000  0.35680000  0.78295000  1
  H  H126  1  0.38015000  0.17288000  0.32548000  1
  H  H127  1  0.35386000  0.22397000  0.29451000  1
  H  H128  1  0.33494000  0.27404000  0.39726000  1
  H  H129  1  0.35680000  0.21705000  0.42165000  1
  H  H130  1  0.61985000  0.17288000  0.67452000  1
  H  H131  1  0.64614000  0.22397000  0.70549000  1
  H  H132  1  0.66506000  0.27404000  0.60274000  1
  H  H133  1  0.64320000  0.21705000  0.57835000  1
  H  H134  1  0.60388000  0.07461000  0.60388000  1
  H  H135  1  0.57515000  0.19951000  0.57515000  1
  H  H136  1  0.54635000  0.14579000  0.54635000  1
  H  H137  1  0.63466000  0.12357000  0.63466000  1
  H  H138  1  0.39612000  0.92539000  0.60388000  1
  H  H139  1  0.42485000  0.80049000  0.57515000  1
  H  H140  1  0.45365000  0.85421000  0.54635000  1
  H  H141  1  0.36476000  0.87276000  0.63524000  1
  H  H142  1  0.39612000  0.07461000  0.39612000  1
  H  H143  1  0.42485000  0.19951000  0.42485000  1
  H  H144  1  0.45365000  0.14579000  0.45365000  1
  H  H145  1  0.36534000  0.12357000  0.36534000  1
  H  H146  1  0.60388000  0.92539000  0.39612000  1
  H  H147  1  0.57515000  0.80049000  0.42485000  1
  H  H148  1  0.54635000  0.85421000  0.45365000  1
  H  H149  1  0.63524000  0.87276000  0.36476000  1
  H  H150  1  0.60388000  0.60388000  0.07461000  1
  H  H151  1  0.57515000  0.57515000  0.19951000  1
  H  H152  1  0.54635000  0.54635000  0.14579000  1
  H  H153  1  0.63466000  0.63466000  0.12357000  1
  H  H154  1  0.60388000  0.39612000  0.92539000  1
  H  H155  1  0.57515000  0.42485000  0.80049000  1
  H  H156  1  0.54635000  0.45365000  0.85421000  1
  H  H157  1  0.63524000  0.36476000  0.87276000  1
  H  H158  1  0.39612000  0.39612000  0.07461000  1
  H  H159  1  0.42485000  0.42485000  0.19951000  1
  H  H160  1  0.45365000  0.45365000  0.14579000  1
  H  H161  1  0.36534000  0.36534000  0.12357000  1
  H  H162  1  0.39612000  0.60388000  0.92539000  1
  H  H163  1  0.42485000  0.57515000  0.80049000  1
  H  H164  1  0.45365000  0.54635000  0.85421000  1
  H  H165  1  0.36476000  0.63524000  0.87276000  1
  H  H166  1  0.07461000  0.60388000  0.60388000  1
  H  H167  1  0.19951000  0.57515000  0.57515000  1
  H  H168  1  0.14579000  0.54635000  0.54635000  1
  H  H169  1  0.12357000  0.63466000  0.63466000  1
  H  H170  1  0.92539000  0.60388000  0.39612000  1
  H  H171  1  0.80049000  0.57515000  0.42485000  1
  H  H172  1  0.85421000  0.54635000  0.45365000  1
  H  H173  1  0.87276000  0.63524000  0.36476000  1
  H  H174  1  0.07461000  0.39612000  0.39612000  1
  H  H175  1  0.19951000  0.42485000  0.42485000  1
  H  H176  1  0.14579000  0.45365000  0.45365000  1
  H  H177  1  0.12357000  0.36534000  0.36534000  1
  H  H178  1  0.92539000  0.39612000  0.60388000  1
  H  H179  1  0.80049000  0.42485000  0.57515000  1
  H  H180  1  0.85421000  0.45365000  0.54635000  1
  H  H181  1  0.87276000  0.36476000  0.63524000  1
  H  H182  1  0.07461000  0.60388000  0.39612000  1
  H  H183  1  0.19951000  0.57515000  0.42485000  1
  H  H184  1  0.14579000  0.54635000  0.45365000  1
  H  H185  1  0.12357000  0.63466000  0.36534000  1
  H  H186  1  0.92539000  0.39612000  0.39612000  1
  H  H187  1  0.80049000  0.42485000  0.42485000  1
  H  H188  1  0.85421000  0.45365000  0.45365000  1
  H  H189  1  0.87276000  0.36476000  0.36476000  1
  H  H190  1  0.07461000  0.39612000  0.60388000  1
  H  H191  1  0.19951000  0.42485000  0.57515000  1
  H  H192  1  0.14579000  0.45365000  0.54635000  1
  H  H193  1  0.12357000  0.36534000  0.63466000  1
  H  H194  1  0.92539000  0.60388000  0.60388000  1
  H  H195  1  0.80049000  0.57515000  0.57515000  1
  H  H196  1  0.85421000  0.54635000  0.54635000  1
  H  H197  1  0.87276000  0.63524000  0.63524000  1
  H  H198  1  0.60388000  0.60388000  0.92539000  1
  H  H199  1  0.57515000  0.57515000  0.80049000  1
  H  H200  1  0.54635000  0.54635000  0.85421000  1
  H  H201  1  0.63524000  0.63524000  0.87276000  1
  H  H202  1  0.39612000  0.60388000  0.07461000  1
  H  H203  1  0.42485000  0.57515000  0.19951000  1
  H  H204  1  0.45365000  0.54635000  0.14579000  1
  H  H205  1  0.36534000  0.63466000  0.12357000  1
  H  H206  1  0.39612000  0.39612000  0.92539000  1
  H  H207  1  0.42485000  0.42485000  0.80049000  1
  H  H208  1  0.45365000  0.45365000  0.85421000  1
  H  H209  1  0.36476000  0.36476000  0.87276000  1
  H  H210  1  0.60388000  0.39612000  0.07461000  1
  H  H211  1  0.57515000  0.42485000  0.19951000  1
  H  H212  1  0.54635000  0.45365000  0.14579000  1
  H  H213  1  0.63466000  0.36534000  0.12357000  1
  H  H214  1  0.60388000  0.07461000  0.39612000  1
  H  H215  1  0.57515000  0.19951000  0.42485000  1
  H  H216  1  0.54635000  0.14579000  0.45365000  1
  H  H217  1  0.63466000  0.12357000  0.36534000  1
  H  H218  1  0.60388000  0.92539000  0.60388000  1
  H  H219  1  0.57515000  0.80049000  0.57515000  1
  H  H220  1  0.54635000  0.85421000  0.54635000  1
  H  H221  1  0.63524000  0.87276000  0.63524000  1
  H  H222  1  0.39612000  0.07461000  0.60388000  1
  H  H223  1  0.42485000  0.19951000  0.57515000  1
  H  H224  1  0.45365000  0.14579000  0.54635000  1
  H  H225  1  0.36534000  0.12357000  0.63466000  1
  H  H226  1  0.39612000  0.92539000  0.39612000  1
  H  H227  1  0.42485000  0.80049000  0.42485000  1
  H  H228  1  0.45365000  0.85421000  0.45365000  1
  H  H229  1  0.36476000  0.87276000  0.36476000  1
  H  H230  1  0.64006000  0.28401000  0.71950000  1
  H  H231  1  0.35994000  0.71599000  0.71950000  1
  H  H232  1  0.35994000  0.28401000  0.28050000  1
  H  H233  1  0.64006000  0.71599000  0.28050000  1
  H  H234  1  0.71950000  0.64006000  0.28401000  1
  H  H235  1  0.71950000  0.35994000  0.71599000  1
  H  H236  1  0.28050000  0.35994000  0.28401000  1
  H  H237  1  0.28050000  0.64006000  0.71599000  1
  H  H238  1  0.28050000  0.71599000  0.64006000  1
  H  H239  1  0.71950000  0.71599000  0.35994000  1
  H  H240  1  0.28050000  0.28401000  0.35994000  1
  H  H241  1  0.71950000  0.28401000  0.64006000  1
  H  H242  1  0.28401000  0.64006000  0.28050000  1
  H  H243  1  0.71599000  0.35994000  0.28050000  1
  H  H244  1  0.28401000  0.35994000  0.71950000  1
  H  H245  1  0.71599000  0.64006000  0.71950000  1
  H  H246  1  0.64006000  0.71950000  0.71599000  1
  H  H247  1  0.35994000  0.71950000  0.28401000  1
  H  H248  1  0.35994000  0.28050000  0.71599000  1
  H  H249  1  0.64006000  0.28050000  0.28401000  1
  H  H250  1  0.71599000  0.28050000  0.35994000  1
  H  H251  1  0.71599000  0.71950000  0.64006000  1
  H  H252  1  0.28401000  0.28050000  0.64006000  1
  H  H253  1  0.28401000  0.71950000  0.35994000  1
  H  H254  1  0.18325000  0.67713000  0.89024000  1
  H  H255  1  0.21239000  0.72613000  0.86113000  1
  H  H256  1  0.08189000  0.72276000  0.86267000  1
  H  H257  1  0.11164000  0.77054000  0.83072000  1
  H  H258  1  0.08123000  0.70579000  0.91877000  1
  H  H259  1  0.04762000  0.65781000  0.95238000  1
  H  H260  1  0.10539000  0.57896000  0.89461000  1
  H  H261  1  0.13733000  0.62362000  0.86267000  1
  H  H262  1  0.95238000  0.65781000  0.95238000  1
  H  H263  1  0.89461000  0.57896000  0.89461000  1
  H  H264  1  0.86267000  0.62362000  0.86267000  1
  H  H265  1  0.91877000  0.70579000  0.91877000  1
  H  H266  1  0.89024000  0.67713000  0.81675000  1
  H  H267  1  0.86267000  0.72276000  0.91811000  1
  H  H268  1  0.83072000  0.77054000  0.88836000  1
  H  H269  1  0.86113000  0.72613000  0.78761000  1
  H  H270  1  0.86029000  0.78046000  0.78071000  1
  H  H271  1  0.78046000  0.78071000  0.86029000  1
  H  H272  1  0.78046000  0.86029000  0.78071000  1
  H  H273  1  0.88836000  0.83072000  0.77054000  1
  H  H274  1  0.91811000  0.86267000  0.72276000  1
  H  H275  1  0.78761000  0.86113000  0.72613000  1
  H  H276  1  0.81675000  0.89024000  0.67713000  1
  H  H277  1  0.72276000  0.91811000  0.86267000  1
  H  H278  1  0.77054000  0.88836000  0.83072000  1
  H  H279  1  0.72613000  0.78761000  0.86113000  1
  H  H280  1  0.67713000  0.81675000  0.89024000  1
  H  H281  1  0.91877000  0.91877000  0.70579000  1
  H  H282  1  0.95238000  0.95238000  0.65781000  1
  H  H283  1  0.86267000  0.86267000  0.62362000  1
  H  H284  1  0.89461000  0.89461000  0.57896000  1
  H  H285  1  0.62362000  0.86267000  0.86267000  1
  H  H286  1  0.70579000  0.91877000  0.91877000  1
  H  H287  1  0.65781000  0.95238000  0.95238000  1
  H  H288  1  0.57896000  0.89461000  0.89461000  1
  H  H289  1  0.11164000  0.83072000  0.77054000  1
  H  H290  1  0.08189000  0.86267000  0.72276000  1
  H  H291  1  0.21239000  0.86113000  0.72613000  1
  H  H292  1  0.18325000  0.89024000  0.67713000  1
  H  H293  1  0.22946000  0.88836000  0.83072000  1
  H  H294  1  0.27724000  0.91811000  0.86267000  1
  H  H295  1  0.27387000  0.78761000  0.86113000  1
  H  H296  1  0.37638000  0.86267000  0.86267000  1
  H  H297  1  0.42104000  0.89461000  0.89461000  1
  H  H298  1  0.34219000  0.95238000  0.95238000  1
  H  H299  1  0.29421000  0.91877000  0.91877000  1
  H  H300  1  0.32287000  0.81675000  0.89024000  1
  H  H301  1  0.21929000  0.78046000  0.86029000  1
  H  H302  1  0.21954000  0.86029000  0.78071000  1
  H  H303  1  0.13971000  0.78046000  0.78071000  1
  H  H304  1  0.08123000  0.91877000  0.70579000  1
  H  H305  1  0.04762000  0.95238000  0.65781000  1
  H  H306  1  0.10539000  0.89461000  0.57896000  1
  H  H307  1  0.13733000  0.86267000  0.62362000  1
  H  H308  1  0.34219000  0.04762000  0.95238000  1
  H  H309  1  0.29421000  0.08123000  0.91877000  1
  H  H310  1  0.42104000  0.10539000  0.89461000  1
  H  H311  1  0.37638000  0.13733000  0.86267000  1
  H  H312  1  0.32287000  0.18325000  0.89024000  1
  H  H313  1  0.27724000  0.08189000  0.86267000  1
  H  H314  1  0.22946000  0.11164000  0.83072000  1
  H  H315  1  0.27387000  0.21239000  0.86113000  1
  H  H316  1  0.70579000  0.08123000  0.91877000  1
  H  H317  1  0.65781000  0.04762000  0.95238000  1
  H  H318  1  0.62362000  0.13733000  0.86267000  1
  H  H319  1  0.57896000  0.10539000  0.89461000  1
  H  H320  1  0.72276000  0.13733000  0.91811000  1
  H  H321  1  0.77054000  0.16928000  0.88836000  1
  H  H322  1  0.72613000  0.13887000  0.78761000  1
  H  H323  1  0.67713000  0.10976000  0.81675000  1
  H  H324  1  0.86267000  0.27724000  0.91811000  1
  H  H325  1  0.83072000  0.22946000  0.88836000  1
  H  H326  1  0.89024000  0.32287000  0.81675000  1
  H  H327  1  0.86113000  0.27387000  0.78761000  1
  H  H328  1  0.86029000  0.21954000  0.78071000  1
  H  H329  1  0.78071000  0.21954000  0.86029000  1
  H  H330  1  0.78046000  0.13971000  0.78071000  1
  H  H331  1  0.83072000  0.11164000  0.77054000  1
  H  H332  1  0.86113000  0.21239000  0.72613000  1
  H  H333  1  0.89024000  0.18325000  0.67713000  1
  H  H334  1  0.86267000  0.08189000  0.72276000  1
  H  H335  1  0.04762000  0.34219000  0.95238000  1
  H  H336  1  0.10539000  0.42104000  0.89461000  1
  H  H337  1  0.13733000  0.37638000  0.86267000  1
  H  H338  1  0.08123000  0.29421000  0.91877000  1
  H  H339  1  0.95238000  0.34219000  0.95238000  1
  H  H340  1  0.89461000  0.42104000  0.89461000  1
  H  H341  1  0.86267000  0.37638000  0.86267000  1
  H  H342  1  0.91877000  0.29421000  0.91877000  1
  H  H343  1  0.10976000  0.32287000  0.81675000  1
  H  H344  1  0.13887000  0.27387000  0.78761000  1
  H  H345  1  0.16928000  0.22946000  0.88836000  1
  H  H346  1  0.13733000  0.27724000  0.91811000  1
  H  H347  1  0.16928000  0.77054000  0.11164000  1
  H  H348  1  0.13733000  0.72276000  0.08189000  1
  H  H349  1  0.13887000  0.72613000  0.21239000  1
  H  H350  1  0.10976000  0.67713000  0.18325000  1
  H  H351  1  0.13733000  0.62362000  0.13733000  1
  H  H352  1  0.08123000  0.70579000  0.08123000  1
  H  H353  1  0.04762000  0.65781000  0.04762000  1
  H  H354  1  0.10539000  0.57896000  0.10539000  1
  H  H355  1  0.13971000  0.78046000  0.21929000  1
  H  H356  1  0.21954000  0.86029000  0.21929000  1
  H  H357  1  0.21954000  0.78071000  0.13971000  1
  H  H358  1  0.22946000  0.83072000  0.11164000  1
  H  H359  1  0.27724000  0.86267000  0.08189000  1
  H  H360  1  0.32287000  0.89024000  0.18325000  1
  H  H361  1  0.27387000  0.86113000  0.21239000  1
  H  H362  1  0.37638000  0.86267000  0.13733000  1
  H  H363  1  0.42104000  0.89461000  0.10539000  1
  H  H364  1  0.34219000  0.95238000  0.04762000  1
  H  H365  1  0.29421000  0.91877000  0.08123000  1
  H  H366  1  0.18325000  0.89024000  0.32287000  1
  H  H367  1  0.21239000  0.86113000  0.27387000  1
  H  H368  1  0.08189000  0.86267000  0.27724000  1
  H  H369  1  0.11164000  0.83072000  0.22946000  1
  H  H370  1  0.65781000  0.95238000  0.04762000  1
  H  H371  1  0.70579000  0.91877000  0.08123000  1
  H  H372  1  0.57896000  0.89461000  0.10539000  1
  H  H373  1  0.62362000  0.86267000  0.13733000  1
  H  H374  1  0.72276000  0.91811000  0.13733000  1
  H  H375  1  0.77054000  0.88836000  0.16928000  1
  H  H376  1  0.67713000  0.81675000  0.10976000  1
  H  H377  1  0.72613000  0.78761000  0.13887000  1
  H  H378  1  0.78046000  0.86029000  0.21929000  1
  H  H379  1  0.86029000  0.78046000  0.21929000  1
  H  H380  1  0.78071000  0.78046000  0.13971000  1
  H  H381  1  0.83072000  0.77054000  0.11164000  1
  H  H382  1  0.86267000  0.72276000  0.08189000  1
  H  H383  1  0.89024000  0.67713000  0.18325000  1
  H  H384  1  0.86113000  0.72613000  0.21239000  1
  H  H385  1  0.86113000  0.78761000  0.27387000  1
  H  H386  1  0.89024000  0.81675000  0.32287000  1
  H  H387  1  0.83072000  0.88836000  0.22946000  1
  H  H388  1  0.86267000  0.91811000  0.27724000  1
  H  H389  1  0.91877000  0.91877000  0.29421000  1
  H  H390  1  0.95238000  0.95238000  0.34219000  1
  H  H391  1  0.89461000  0.89461000  0.42104000  1
  H  H392  1  0.86267000  0.86267000  0.37638000  1
  H  H393  1  0.89461000  0.57896000  0.10539000  1
  H  H394  1  0.86267000  0.62362000  0.13733000  1
  H  H395  1  0.91877000  0.70579000  0.08123000  1
  H  H396  1  0.95238000  0.65781000  0.04762000  1
  H  H397  1  0.65781000  0.04762000  0.04762000  1
  H  H398  1  0.57896000  0.10539000  0.10539000  1
  H  H399  1  0.62362000  0.13733000  0.13733000  1
  H  H400  1  0.70579000  0.08123000  0.08123000  1
  H  H401  1  0.72276000  0.08189000  0.13733000  1
  H  H402  1  0.67713000  0.18325000  0.10976000  1
  H  H403  1  0.72613000  0.21239000  0.13887000  1
  H  H404  1  0.77054000  0.11164000  0.16928000  1
  H  H405  1  0.29421000  0.08123000  0.08123000  1
  H  H406  1  0.34219000  0.04762000  0.04762000  1
  H  H407  1  0.42104000  0.10539000  0.10539000  1
  H  H408  1  0.37638000  0.13733000  0.13733000  1
  H  H409  1  0.78046000  0.13971000  0.21929000  1
  H  H410  1  0.78046000  0.21929000  0.13971000  1
  H  H411  1  0.86029000  0.21954000  0.21929000  1
  H  H412  1  0.91877000  0.29421000  0.08123000  1
  H  H413  1  0.95238000  0.34219000  0.04762000  1
  H  H414  1  0.89461000  0.42104000  0.10539000  1
  H  H415  1  0.86267000  0.37638000  0.13733000  1
  H  H416  1  0.91811000  0.27724000  0.13733000  1
  H  H417  1  0.88836000  0.22946000  0.16928000  1
  H  H418  1  0.78761000  0.27387000  0.13887000  1
  H  H419  1  0.81675000  0.32287000  0.10976000  1
  H  H420  1  0.27724000  0.08189000  0.13733000  1
  H  H421  1  0.22946000  0.11164000  0.16928000  1
  H  H422  1  0.32287000  0.18325000  0.10976000  1
  H  H423  1  0.27387000  0.21239000  0.13887000  1
  H  H424  1  0.21929000  0.21954000  0.13971000  1
  H  H425  1  0.13971000  0.21954000  0.21929000  1
  H  H426  1  0.21954000  0.13971000  0.21929000  1
  H  H427  1  0.21239000  0.13887000  0.27387000  1
  H  H428  1  0.18325000  0.10976000  0.32287000  1
  H  H429  1  0.08189000  0.13733000  0.27724000  1
  H  H430  1  0.11164000  0.16928000  0.22946000  1
  H  H431  1  0.04762000  0.04762000  0.34219000  1
  H  H432  1  0.08123000  0.08123000  0.29421000  1
  H  H433  1  0.10539000  0.10539000  0.42104000  1
  H  H434  1  0.13733000  0.13733000  0.37638000  1
  H  H435  1  0.08123000  0.29421000  0.08123000  1
  H  H436  1  0.04762000  0.34219000  0.04762000  1
  H  H437  1  0.10539000  0.42104000  0.10539000  1
  H  H438  1  0.13733000  0.37638000  0.13733000  1
  H  H439  1  0.13887000  0.27387000  0.21239000  1
  H  H440  1  0.10976000  0.32287000  0.18325000  1
  H  H441  1  0.16928000  0.22946000  0.11164000  1
  H  H442  1  0.13733000  0.27724000  0.08189000  1
  H  H443  1  0.10539000  0.10539000  0.57896000  1
  H  H444  1  0.04762000  0.04762000  0.65781000  1
  H  H445  1  0.08123000  0.08123000  0.70579000  1
  H  H446  1  0.13733000  0.13733000  0.62362000  1
  H  H447  1  0.18325000  0.10976000  0.67713000  1
  H  H448  1  0.08189000  0.13733000  0.72276000  1
  H  H449  1  0.11164000  0.16928000  0.77054000  1
  H  H450  1  0.21239000  0.13887000  0.72613000  1
  H  H451  1  0.21954000  0.13971000  0.78071000  1
  H  H452  1  0.13971000  0.21954000  0.78071000  1
  H  H453  1  0.21954000  0.21929000  0.86029000  1
  H  H454  1  0.91877000  0.08123000  0.70579000  1
  H  H455  1  0.95238000  0.04762000  0.65781000  1
  H  H456  1  0.89461000  0.10539000  0.57896000  1
  H  H457  1  0.86267000  0.13733000  0.62362000  1
  H  H458  1  0.88836000  0.16928000  0.22946000  1
  H  H459  1  0.91811000  0.13733000  0.27724000  1
  H  H460  1  0.78761000  0.13887000  0.27387000  1
  H  H461  1  0.81675000  0.10976000  0.32287000  1
  H  H462  1  0.91877000  0.08123000  0.29421000  1
  H  H463  1  0.95238000  0.04762000  0.34219000  1
  H  H464  1  0.86267000  0.13733000  0.37638000  1
  H  H465  1  0.89461000  0.10539000  0.42104000  1
  H  H466  1  0.13733000  0.86267000  0.37638000  1
  H  H467  1  0.10539000  0.89461000  0.42104000  1
  H  H468  1  0.08123000  0.91877000  0.29421000  1
  H  H469  1  0.04762000  0.95238000  0.34219000  1
  H  H470  1  0.23907000  0.36300000  0.39549000  1
  H  H471  1  0.25624000  0.39083000  0.31553000  1
  H  H472  1  0.57051000  0.00000000  0.60318000  1
  H  H473  1  0.48675000  0.00000000  0.60318000  1
  H  H474  1  0.48675000  0.00000000  0.39682000  1
  H  H475  1  0.57051000  0.00000000  0.39682000  1
  H  H476  1  0.63181000  0.54188000  0.00000000  1
  H  H477  1  0.63181000  0.45812000  0.00000000  1
  H  H478  1  0.42545000  0.45812000  0.00000000  1
  H  H479  1  0.42545000  0.54188000  0.00000000  1
  H  H480  1  0.02863000  0.60318000  0.54188000  1
  H  H481  1  0.02863000  0.60318000  0.45812000  1
  H  H482  1  0.02863000  0.39682000  0.45812000  1
  H  H483  1  0.02863000  0.39682000  0.54188000  1
  H  H484  1  0.02863000  0.54188000  0.39682000  1
  H  H485  1  0.02863000  0.45812000  0.39682000  1
  H  H486  1  0.02863000  0.45812000  0.60318000  1
  H  H487  1  0.02863000  0.54188000  0.60318000  1
  H  H488  1  0.57051000  0.60318000  0.00000000  1
  H  H489  1  0.48675000  0.60318000  0.00000000  1
  H  H490  1  0.48675000  0.39682000  0.00000000  1
  H  H491  1  0.57051000  0.39682000  0.00000000  1
  H  H492  1  0.63181000  0.00000000  0.45812000  1
  H  H493  1  0.63181000  0.00000000  0.54188000  1
  H  H494  1  0.42545000  0.00000000  0.54188000  1
  H  H495  1  0.42545000  0.00000000  0.45812000  1
  H  H496  1  0.91923000  0.04150000  0.50000000  1
  H  H497  1  0.13803000  0.95850000  0.50000000  1
  H  H498  1  0.13803000  0.04150000  0.50000000  1
  H  H499  1  0.91923000  0.95850000  0.50000000  1
  H  H500  1  0.52863000  0.89060000  0.04150000  1
  H  H501  1  0.52863000  0.10940000  0.95850000  1
  H  H502  1  0.52863000  0.10940000  0.04150000  1
  H  H503  1  0.52863000  0.89060000  0.95850000  1
  H  H504  1  0.07013000  0.50000000  0.89060000  1
  H  H505  1  0.98713000  0.50000000  0.10940000  1
  H  H506  1  0.07013000  0.50000000  0.10940000  1
  H  H507  1  0.98713000  0.50000000  0.89060000  1
  H  H508  1  0.07013000  0.89060000  0.50000000  1
  H  H509  1  0.98713000  0.10940000  0.50000000  1
  H  H510  1  0.07013000  0.10940000  0.50000000  1
  H  H511  1  0.98713000  0.89060000  0.50000000  1
  H  H512  1  0.91923000  0.50000000  0.95850000  1
  H  H513  1  0.13803000  0.50000000  0.04150000  1
  H  H514  1  0.13803000  0.50000000  0.95850000  1
  H  H515  1  0.91923000  0.50000000  0.04150000  1
  H  H516  1  0.52863000  0.04150000  0.10940000  1
  H  H517  1  0.52863000  0.95850000  0.89060000  1
  H  H518  1  0.52863000  0.04150000  0.89060000  1
  H  H519  1  0.52863000  0.95850000  0.10940000  1
  H  H520  1  0.03990000  0.07082000  0.45468000  1
  H  H521  1  0.44174000  0.08424000  0.08424000  1
  H  H522  1  0.03990000  0.45468000  0.07082000  1
  H  H523  1  0.04105000  0.94118000  0.45712000  1
  H  H524  1  0.96010000  0.07082000  0.45468000  1
  H  H525  1  0.09103000  0.07326000  0.55732000  1
  H  H526  1  0.09103000  0.55732000  0.07326000  1
  H  H527  1  0.04105000  0.45712000  0.94118000  1
  H  H528  1  0.96010000  0.45468000  0.07082000  1
  H  H529  1  0.55826000  0.08424000  0.08424000  1
  H  H530  1  0.44990000  0.08513000  0.95305000  1
  H  H531  1  0.44990000  0.95305000  0.08513000  1
  H  H532  1  0.90897000  0.07326000  0.55732000  1
  H  H533  1  0.55010000  0.08513000  0.95305000  1
  H  H534  1  0.96172000  0.41332000  0.98730000  1
  H  H535  1  0.05139000  0.98150000  0.61768000  1
  H  H536  1  0.45805000  0.95216000  0.95216000  1
  H  H537  1  0.09217000  0.55489000  0.93875000  1
  H  H538  1  0.96172000  0.98730000  0.41332000  1
  H  H539  1  0.55010000  0.95305000  0.08513000  1
  H  H540  1  0.90897000  0.55732000  0.07326000  1
  H  H541  1  0.90783000  0.93875000  0.55489000  1
  H  H542  1  0.90783000  0.55489000  0.93875000  1
  H  H543  1  0.58029000  0.97646000  0.97646000  1
  C  C544  1  0.34090000  0.80460000  0.63080000  1
  C  C545  1  0.32390000  0.77700000  0.64610000  1
  C  C546  1  0.37920000  0.74800000  0.65780000  1
  C  C547  1  0.39260000  0.77840000  0.64350000  1
  C  C548  1  0.65910000  0.80460000  0.36920000  1
  C  C549  1  0.67610000  0.77700000  0.35390000  1
  C  C550  1  0.62080000  0.74800000  0.34220000  1
  C  C551  1  0.60740000  0.77840000  0.35650000  1
  C  C552  1  0.63080000  0.65910000  0.19540000  1
  C  C553  1  0.64610000  0.67610000  0.22300000  1
  C  C554  1  0.65780000  0.62080000  0.25200000  1
  C  C555  1  0.64350000  0.60740000  0.22160000  1
  C  C556  1  0.36920000  0.65910000  0.80460000  1
  C  C557  1  0.35390000  0.67610000  0.77700000  1
  C  C558  1  0.34220000  0.62080000  0.74800000  1
  C  C559  1  0.35650000  0.60740000  0.77840000  1
  C  C560  1  0.19540000  0.63080000  0.65910000  1
  C  C561  1  0.22300000  0.64610000  0.67610000  1
  C  C562  1  0.25200000  0.65780000  0.62080000  1
  C  C563  1  0.22160000  0.64350000  0.60740000  1
  C  C564  1  0.19540000  0.36920000  0.34090000  1
  C  C565  1  0.25200000  0.34220000  0.37920000  1
  C  C566  1  0.80460000  0.34090000  0.36920000  1
  C  C567  1  0.77700000  0.32390000  0.35390000  1
  C  C568  1  0.74800000  0.37920000  0.34220000  1
  C  C569  1  0.77840000  0.39260000  0.35650000  1
  C  C570  1  0.19540000  0.34090000  0.63080000  1
  C  C571  1  0.22300000  0.32390000  0.64610000  1
  C  C572  1  0.25200000  0.37920000  0.65780000  1
  C  C573  1  0.22160000  0.39260000  0.64350000  1
  C  C574  1  0.80460000  0.65910000  0.63080000  1
  C  C575  1  0.77700000  0.67610000  0.64610000  1
  C  C576  1  0.74800000  0.62080000  0.65780000  1
  C  C577  1  0.77840000  0.60740000  0.64350000  1
  C  C578  1  0.34090000  0.36920000  0.80460000  1
  C  C579  1  0.32390000  0.35390000  0.77700000  1
  C  C580  1  0.37920000  0.34220000  0.74800000  1
  C  C581  1  0.39260000  0.35650000  0.77840000  1
  C  C582  1  0.65910000  0.36920000  0.19540000  1
  C  C583  1  0.67610000  0.35390000  0.22300000  1
  C  C584  1  0.62080000  0.34220000  0.25200000  1
  C  C585  1  0.60740000  0.35650000  0.22160000  1
  C  C586  1  0.63080000  0.19540000  0.34090000  1
  C  C587  1  0.64610000  0.22300000  0.32390000  1
  C  C588  1  0.65780000  0.25200000  0.37920000  1
  C  C589  1  0.64350000  0.22160000  0.39260000  1
  C  C590  1  0.36920000  0.19540000  0.65910000  1
  C  C591  1  0.35390000  0.22300000  0.67610000  1
  C  C592  1  0.34220000  0.25200000  0.62080000  1
  C  C593  1  0.35650000  0.22160000  0.60740000  1
  C  C594  1  0.36920000  0.80460000  0.34090000  1
  C  C595  1  0.35390000  0.77700000  0.32390000  1
  C  C596  1  0.34220000  0.74800000  0.37920000  1
  C  C597  1  0.35650000  0.77840000  0.39260000  1
  C  C598  1  0.65910000  0.80460000  0.63080000  1
  C  C599  1  0.67610000  0.77700000  0.64610000  1
  C  C600  1  0.62080000  0.74800000  0.65780000  1
  C  C601  1  0.60740000  0.77840000  0.64350000  1
  C  C602  1  0.36920000  0.65910000  0.19540000  1
  C  C603  1  0.35390000  0.67610000  0.22300000  1
  C  C604  1  0.34220000  0.62080000  0.25200000  1
  C  C605  1  0.35650000  0.60740000  0.22160000  1
  C  C606  1  0.63080000  0.65910000  0.80460000  1
  C  C607  1  0.64610000  0.67610000  0.77700000  1
  C  C608  1  0.65780000  0.62080000  0.74800000  1
  C  C609  1  0.64350000  0.60740000  0.77840000  1
  C  C610  1  0.19540000  0.63080000  0.34090000  1
  C  C611  1  0.22300000  0.64610000  0.32390000  1
  C  C612  1  0.25200000  0.65780000  0.37920000  1
  C  C613  1  0.22160000  0.64350000  0.39260000  1
  C  C614  1  0.80460000  0.34090000  0.63080000  1
  C  C615  1  0.77700000  0.32390000  0.64610000  1
  C  C616  1  0.74800000  0.37920000  0.65780000  1
  C  C617  1  0.77840000  0.39260000  0.64350000  1
  C  C618  1  0.80460000  0.65910000  0.36920000  1
  C  C619  1  0.77700000  0.67610000  0.35390000  1
  C  C620  1  0.74800000  0.62080000  0.34220000  1
  C  C621  1  0.77840000  0.60740000  0.35650000  1
  C  C622  1  0.19540000  0.34090000  0.36920000  1
  C  C623  1  0.22300000  0.32390000  0.35390000  1
  C  C624  1  0.25200000  0.37920000  0.34220000  1
  C  C625  1  0.22160000  0.39260000  0.35650000  1
  C  C626  1  0.34090000  0.36920000  0.19540000  1
  C  C627  1  0.32390000  0.35390000  0.22300000  1
  C  C628  1  0.37920000  0.34220000  0.25200000  1
  C  C629  1  0.39260000  0.35650000  0.22160000  1
  C  C630  1  0.65910000  0.36920000  0.80460000  1
  C  C631  1  0.67610000  0.35390000  0.77700000  1
  C  C632  1  0.62080000  0.34220000  0.74800000  1
  C  C633  1  0.60740000  0.35650000  0.77840000  1
  C  C634  1  0.36920000  0.19540000  0.34090000  1
  C  C635  1  0.35390000  0.22300000  0.32390000  1
  C  C636  1  0.34220000  0.25200000  0.37920000  1
  C  C637  1  0.35650000  0.22160000  0.39260000  1
  C  C638  1  0.63080000  0.19540000  0.65910000  1
  C  C639  1  0.64610000  0.22300000  0.67610000  1
  C  C640  1  0.65780000  0.25200000  0.62080000  1
  C  C641  1  0.64350000  0.22160000  0.60740000  1
  C  C642  1  0.57660000  0.11060000  0.57660000  1
  C  C643  1  0.55800000  0.08660000  0.55800000  1
  C  C644  1  0.60880000  0.16590000  0.60880000  1
  C  C645  1  0.59820000  0.10290000  0.59820000  1
  C  C646  1  0.58250000  0.17200000  0.58250000  1
  C  C647  1  0.56700000  0.14230000  0.56700000  1
  C  C648  1  0.61470000  0.13180000  0.61470000  1
  C  C649  1  0.62720000  0.19170000  0.62720000  1
  C  C650  1  0.66100000  0.24890000  0.66100000  1
  C  C651  1  0.67590000  0.27800000  0.67590000  1
  C  C652  1  0.42340000  0.88940000  0.57660000  1
  C  C653  1  0.44200000  0.91340000  0.55800000  1
  C  C654  1  0.39120000  0.83410000  0.60880000  1
  C  C655  1  0.40180000  0.89710000  0.59820000  1
  C  C656  1  0.41750000  0.82800000  0.58250000  1
  C  C657  1  0.43300000  0.85770000  0.56700000  1
  C  C658  1  0.38530000  0.86820000  0.61470000  1
  C  C659  1  0.37280000  0.80830000  0.62720000  1
  C  C660  1  0.33900000  0.75110000  0.66100000  1
  C  C661  1  0.32410000  0.72200000  0.67590000  1
  C  C662  1  0.42340000  0.11060000  0.42340000  1
  C  C663  1  0.44200000  0.08660000  0.44200000  1
  C  C664  1  0.39120000  0.16590000  0.39120000  1
  C  C665  1  0.40180000  0.10290000  0.40180000  1
  C  C666  1  0.41750000  0.17200000  0.41750000  1
  C  C667  1  0.43300000  0.14230000  0.43300000  1
  C  C668  1  0.38530000  0.13180000  0.38530000  1
  C  C669  1  0.37280000  0.19170000  0.37280000  1
  C  C670  1  0.33900000  0.24890000  0.33900000  1
  C  C671  1  0.32410000  0.27800000  0.32410000  1
  C  C672  1  0.57660000  0.88940000  0.42340000  1
  C  C673  1  0.55800000  0.91340000  0.44200000  1
  C  C674  1  0.60880000  0.83410000  0.39120000  1
  C  C675  1  0.59820000  0.89710000  0.40180000  1
  C  C676  1  0.58250000  0.82800000  0.41750000  1
  C  C677  1  0.56700000  0.85770000  0.43300000  1
  C  C678  1  0.61470000  0.86820000  0.38530000  1
  C  C679  1  0.62720000  0.80830000  0.37280000  1
  C  C680  1  0.66100000  0.75110000  0.33900000  1
  C  C681  1  0.67590000  0.72200000  0.32410000  1
  C  C682  1  0.57660000  0.57660000  0.11060000  1
  C  C683  1  0.55800000  0.55800000  0.08660000  1
  C  C684  1  0.60880000  0.60880000  0.16590000  1
  C  C685  1  0.59820000  0.59820000  0.10290000  1
  C  C686  1  0.58250000  0.58250000  0.17200000  1
  C  C687  1  0.56700000  0.56700000  0.14230000  1
  C  C688  1  0.61470000  0.61470000  0.13180000  1
  C  C689  1  0.62720000  0.62720000  0.19170000  1
  C  C690  1  0.66100000  0.66100000  0.24890000  1
  C  C691  1  0.67590000  0.67590000  0.27800000  1
  C  C692  1  0.57660000  0.42340000  0.88940000  1
  C  C693  1  0.55800000  0.44200000  0.91340000  1
  C  C694  1  0.60880000  0.39120000  0.83410000  1
  C  C695  1  0.59820000  0.40180000  0.89710000  1
  C  C696  1  0.58250000  0.41750000  0.82800000  1
  C  C697  1  0.56700000  0.43300000  0.85770000  1
  C  C698  1  0.61470000  0.38530000  0.86820000  1
  C  C699  1  0.62720000  0.37280000  0.80830000  1
  C  C700  1  0.66100000  0.33900000  0.75110000  1
  C  C701  1  0.67590000  0.32410000  0.72200000  1
  C  C702  1  0.42340000  0.42340000  0.11060000  1
  C  C703  1  0.44200000  0.44200000  0.08660000  1
  C  C704  1  0.39120000  0.39120000  0.16590000  1
  C  C705  1  0.40180000  0.40180000  0.10290000  1
  C  C706  1  0.41750000  0.41750000  0.17200000  1
  C  C707  1  0.43300000  0.43300000  0.14230000  1
  C  C708  1  0.38530000  0.38530000  0.13180000  1
  C  C709  1  0.37280000  0.37280000  0.19170000  1
  C  C710  1  0.33900000  0.33900000  0.24890000  1
  C  C711  1  0.32410000  0.32410000  0.27800000  1
  C  C712  1  0.42340000  0.57660000  0.88940000  1
  C  C713  1  0.44200000  0.55800000  0.91340000  1
  C  C714  1  0.39120000  0.60880000  0.83410000  1
  C  C715  1  0.40180000  0.59820000  0.89710000  1
  C  C716  1  0.41750000  0.58250000  0.82800000  1
  C  C717  1  0.43300000  0.56700000  0.85770000  1
  C  C718  1  0.38530000  0.61470000  0.86820000  1
  C  C719  1  0.37280000  0.62720000  0.80830000  1
  C  C720  1  0.33900000  0.66100000  0.75110000  1
  C  C721  1  0.32410000  0.67590000  0.72200000  1
  C  C722  1  0.11060000  0.57660000  0.57660000  1
  C  C723  1  0.08660000  0.55800000  0.55800000  1
  C  C724  1  0.16590000  0.60880000  0.60880000  1
  C  C725  1  0.10290000  0.59820000  0.59820000  1
  C  C726  1  0.17200000  0.58250000  0.58250000  1
  C  C727  1  0.14230000  0.56700000  0.56700000  1
  C  C728  1  0.13180000  0.61470000  0.61470000  1
  C  C729  1  0.19170000  0.62720000  0.62720000  1
  C  C730  1  0.24890000  0.66100000  0.66100000  1
  C  C731  1  0.27800000  0.67590000  0.67590000  1
  C  C732  1  0.88940000  0.57660000  0.42340000  1
  C  C733  1  0.91340000  0.55800000  0.44200000  1
  C  C734  1  0.83410000  0.60880000  0.39120000  1
  C  C735  1  0.89710000  0.59820000  0.40180000  1
  C  C736  1  0.82800000  0.58250000  0.41750000  1
  C  C737  1  0.85770000  0.56700000  0.43300000  1
  C  C738  1  0.86820000  0.61470000  0.38530000  1
  C  C739  1  0.80830000  0.62720000  0.37280000  1
  C  C740  1  0.75110000  0.66100000  0.33900000  1
  C  C741  1  0.72200000  0.67590000  0.32410000  1
  C  C742  1  0.11060000  0.42340000  0.42340000  1
  C  C743  1  0.08660000  0.44200000  0.44200000  1
  C  C744  1  0.16590000  0.39120000  0.39120000  1
  C  C745  1  0.10290000  0.40180000  0.40180000  1
  C  C746  1  0.17200000  0.41750000  0.41750000  1
  C  C747  1  0.14230000  0.43300000  0.43300000  1
  C  C748  1  0.13180000  0.38530000  0.38530000  1
  C  C749  1  0.19170000  0.37280000  0.37280000  1
  C  C750  1  0.24890000  0.33900000  0.33900000  1
  C  C751  1  0.27800000  0.32410000  0.32410000  1
  C  C752  1  0.88940000  0.42340000  0.57660000  1
  C  C753  1  0.91340000  0.44200000  0.55800000  1
  C  C754  1  0.83410000  0.39120000  0.60880000  1
  C  C755  1  0.89710000  0.40180000  0.59820000  1
  C  C756  1  0.82800000  0.41750000  0.58250000  1
  C  C757  1  0.85770000  0.43300000  0.56700000  1
  C  C758  1  0.86820000  0.38530000  0.61470000  1
  C  C759  1  0.80830000  0.37280000  0.62720000  1
  C  C760  1  0.75110000  0.33900000  0.66100000  1
  C  C761  1  0.72200000  0.32410000  0.67590000  1
  C  C762  1  0.11060000  0.57660000  0.42340000  1
  C  C763  1  0.08660000  0.55800000  0.44200000  1
  C  C764  1  0.16590000  0.60880000  0.39120000  1
  C  C765  1  0.10290000  0.59820000  0.40180000  1
  C  C766  1  0.17200000  0.58250000  0.41750000  1
  C  C767  1  0.14230000  0.56700000  0.43300000  1
  C  C768  1  0.13180000  0.61470000  0.38530000  1
  C  C769  1  0.19170000  0.62720000  0.37280000  1
  C  C770  1  0.24890000  0.66100000  0.33900000  1
  C  C771  1  0.27800000  0.67590000  0.32410000  1
  C  C772  1  0.88940000  0.42340000  0.42340000  1
  C  C773  1  0.91340000  0.44200000  0.44200000  1
  C  C774  1  0.83410000  0.39120000  0.39120000  1
  C  C775  1  0.89710000  0.40180000  0.40180000  1
  C  C776  1  0.82800000  0.41750000  0.41750000  1
  C  C777  1  0.85770000  0.43300000  0.43300000  1
  C  C778  1  0.86820000  0.38530000  0.38530000  1
  C  C779  1  0.80830000  0.37280000  0.37280000  1
  C  C780  1  0.75110000  0.33900000  0.33900000  1
  C  C781  1  0.72200000  0.32410000  0.32410000  1
  C  C782  1  0.11060000  0.42340000  0.57660000  1
  C  C783  1  0.08660000  0.44200000  0.55800000  1
  C  C784  1  0.16590000  0.39120000  0.60880000  1
  C  C785  1  0.10290000  0.40180000  0.59820000  1
  C  C786  1  0.17200000  0.41750000  0.58250000  1
  C  C787  1  0.14230000  0.43300000  0.56700000  1
  C  C788  1  0.13180000  0.38530000  0.61470000  1
  C  C789  1  0.19170000  0.37280000  0.62720000  1
  C  C790  1  0.24890000  0.33900000  0.66100000  1
  C  C791  1  0.27800000  0.32410000  0.67590000  1
  C  C792  1  0.88940000  0.57660000  0.57660000  1
  C  C793  1  0.91340000  0.55800000  0.55800000  1
  C  C794  1  0.83410000  0.60880000  0.60880000  1
  C  C795  1  0.89710000  0.59820000  0.59820000  1
  C  C796  1  0.82800000  0.58250000  0.58250000  1
  C  C797  1  0.85770000  0.56700000  0.56700000  1
  C  C798  1  0.86820000  0.61470000  0.61470000  1
  C  C799  1  0.80830000  0.62720000  0.62720000  1
  C  C800  1  0.75110000  0.66100000  0.66100000  1
  C  C801  1  0.72200000  0.67590000  0.67590000  1
  C  C802  1  0.57660000  0.57660000  0.88940000  1
  C  C803  1  0.55800000  0.55800000  0.91340000  1
  C  C804  1  0.60880000  0.60880000  0.83410000  1
  C  C805  1  0.59820000  0.59820000  0.89710000  1
  C  C806  1  0.58250000  0.58250000  0.82800000  1
  C  C807  1  0.56700000  0.56700000  0.85770000  1
  C  C808  1  0.61470000  0.61470000  0.86820000  1
  C  C809  1  0.62720000  0.62720000  0.80830000  1
  C  C810  1  0.66100000  0.66100000  0.75110000  1
  C  C811  1  0.67590000  0.67590000  0.72200000  1
  C  C812  1  0.42340000  0.57660000  0.11060000  1
  C  C813  1  0.44200000  0.55800000  0.08660000  1
  C  C814  1  0.39120000  0.60880000  0.16590000  1
  C  C815  1  0.40180000  0.59820000  0.10290000  1
  C  C816  1  0.41750000  0.58250000  0.17200000  1
  C  C817  1  0.43300000  0.56700000  0.14230000  1
  C  C818  1  0.38530000  0.61470000  0.13180000  1
  C  C819  1  0.37280000  0.62720000  0.19170000  1
  C  C820  1  0.33900000  0.66100000  0.24890000  1
  C  C821  1  0.32410000  0.67590000  0.27800000  1
  C  C822  1  0.42340000  0.42340000  0.88940000  1
  C  C823  1  0.44200000  0.44200000  0.91340000  1
  C  C824  1  0.39120000  0.39120000  0.83410000  1
  C  C825  1  0.40180000  0.40180000  0.89710000  1
  C  C826  1  0.41750000  0.41750000  0.82800000  1
  C  C827  1  0.43300000  0.43300000  0.85770000  1
  C  C828  1  0.38530000  0.38530000  0.86820000  1
  C  C829  1  0.37280000  0.37280000  0.80830000  1
  C  C830  1  0.33900000  0.33900000  0.75110000  1
  C  C831  1  0.32410000  0.32410000  0.72200000  1
  C  C832  1  0.57660000  0.42340000  0.11060000  1
  C  C833  1  0.55800000  0.44200000  0.08660000  1
  C  C834  1  0.60880000  0.39120000  0.16590000  1
  C  C835  1  0.59820000  0.40180000  0.10290000  1
  C  C836  1  0.58250000  0.41750000  0.17200000  1
  C  C837  1  0.56700000  0.43300000  0.14230000  1
  C  C838  1  0.61470000  0.38530000  0.13180000  1
  C  C839  1  0.62720000  0.37280000  0.19170000  1
  C  C840  1  0.66100000  0.33900000  0.24890000  1
  C  C841  1  0.67590000  0.32410000  0.27800000  1
  C  C842  1  0.57660000  0.11060000  0.42340000  1
  C  C843  1  0.55800000  0.08660000  0.44200000  1
  C  C844  1  0.60880000  0.16590000  0.39120000  1
  C  C845  1  0.59820000  0.10290000  0.40180000  1
  C  C846  1  0.58250000  0.17200000  0.41750000  1
  C  C847  1  0.56700000  0.14230000  0.43300000  1
  C  C848  1  0.61470000  0.13180000  0.38530000  1
  C  C849  1  0.62720000  0.19170000  0.37280000  1
  C  C850  1  0.66100000  0.24890000  0.33900000  1
  C  C851  1  0.67590000  0.27800000  0.32410000  1
  C  C852  1  0.57660000  0.88940000  0.57660000  1
  C  C853  1  0.55800000  0.91340000  0.55800000  1
  C  C854  1  0.60880000  0.83410000  0.60880000  1
  C  C855  1  0.59820000  0.89710000  0.59820000  1
  C  C856  1  0.58250000  0.82800000  0.58250000  1
  C  C857  1  0.56700000  0.85770000  0.56700000  1
  C  C858  1  0.61470000  0.86820000  0.61470000  1
  C  C859  1  0.62720000  0.80830000  0.62720000  1
  C  C860  1  0.66100000  0.75110000  0.66100000  1
  C  C861  1  0.67590000  0.72200000  0.67590000  1
  C  C862  1  0.42340000  0.11060000  0.57660000  1
  C  C863  1  0.44200000  0.08660000  0.55800000  1
  C  C864  1  0.39120000  0.16590000  0.60880000  1
  C  C865  1  0.40180000  0.10290000  0.59820000  1
  C  C866  1  0.41750000  0.17200000  0.58250000  1
  C  C867  1  0.43300000  0.14230000  0.56700000  1
  C  C868  1  0.38530000  0.13180000  0.61470000  1
  C  C869  1  0.37280000  0.19170000  0.62720000  1
  C  C870  1  0.33900000  0.24890000  0.66100000  1
  C  C871  1  0.32410000  0.27800000  0.67590000  1
  C  C872  1  0.42340000  0.88940000  0.42340000  1
  C  C873  1  0.44200000  0.91340000  0.44200000  1
  C  C874  1  0.39120000  0.83410000  0.39120000  1
  C  C875  1  0.40180000  0.89710000  0.40180000  1
  C  C876  1  0.41750000  0.82800000  0.41750000  1
  C  C877  1  0.43300000  0.85770000  0.43300000  1
  C  C878  1  0.38530000  0.86820000  0.38530000  1
  C  C879  1  0.37280000  0.80830000  0.37280000  1
  C  C880  1  0.33900000  0.75110000  0.33900000  1
  C  C881  1  0.32410000  0.72200000  0.32410000  1
  C  C882  1  0.66360000  0.29460000  0.70540000  1
  C  C883  1  0.33640000  0.70540000  0.70540000  1
  C  C884  1  0.33640000  0.29460000  0.29460000  1
  C  C885  1  0.66360000  0.70540000  0.29460000  1
  C  C886  1  0.70540000  0.66360000  0.29460000  1
  C  C887  1  0.70540000  0.33640000  0.70540000  1
  C  C888  1  0.29460000  0.33640000  0.29460000  1
  C  C889  1  0.29460000  0.66360000  0.70540000  1
  C  C890  1  0.29460000  0.70540000  0.66360000  1
  C  C891  1  0.70540000  0.70540000  0.33640000  1
  C  C892  1  0.29460000  0.29460000  0.33640000  1
  C  C893  1  0.70540000  0.29460000  0.66360000  1
  C  C894  1  0.29460000  0.66360000  0.29460000  1
  C  C895  1  0.70540000  0.33640000  0.29460000  1
  C  C896  1  0.29460000  0.33640000  0.70540000  1
  C  C897  1  0.70540000  0.66360000  0.70540000  1
  C  C898  1  0.66360000  0.70540000  0.70540000  1
  C  C899  1  0.33640000  0.70540000  0.29460000  1
  C  C900  1  0.33640000  0.29460000  0.70540000  1
  C  C901  1  0.66360000  0.29460000  0.29460000  1
  C  C902  1  0.70540000  0.29460000  0.33640000  1
  C  C903  1  0.70540000  0.70540000  0.66360000  1
  C  C904  1  0.29460000  0.29460000  0.66360000  1
  C  C905  1  0.29460000  0.70540000  0.33640000  1
  C  C906  1  0.16760000  0.12600000  0.30400000  1
  C  C907  1  0.18340000  0.14200000  0.27770000  1
  C  C908  1  0.30400000  0.16760000  0.12600000  1
  C  C909  1  0.27770000  0.18340000  0.14200000  1
  C  C910  1  0.12600000  0.30400000  0.16760000  1
  C  C911  1  0.14200000  0.27770000  0.18340000  1
  C  C912  1  0.12720000  0.84100000  0.25220000  1
  C  C913  1  0.11090000  0.85800000  0.27850000  1
  C  C914  1  0.87280000  0.15900000  0.25220000  1
  C  C915  1  0.88910000  0.14200000  0.27850000  1
  C  C916  1  0.12720000  0.15900000  0.74780000  1
  C  C917  1  0.11090000  0.14200000  0.72150000  1
  C  C918  1  0.15900000  0.74780000  0.12720000  1
  C  C919  1  0.14200000  0.72150000  0.11090000  1
  C  C920  1  0.15900000  0.25220000  0.87280000  1
  C  C921  1  0.14200000  0.27850000  0.88910000  1
  C  C922  1  0.83240000  0.30400000  0.12600000  1
  C  C923  1  0.81660000  0.27770000  0.14200000  1
  C  C924  1  0.74780000  0.12720000  0.15900000  1
  C  C925  1  0.72150000  0.11090000  0.14200000  1
  C  C926  1  0.25220000  0.12720000  0.84100000  1
  C  C927  1  0.27850000  0.11090000  0.85800000  1
  C  C928  1  0.30400000  0.87400000  0.16760000  1
  C  C929  1  0.27770000  0.85800000  0.18340000  1
  C  C930  1  0.16760000  0.87400000  0.30400000  1
  C  C931  1  0.18340000  0.85800000  0.27770000  1
  C  C932  1  0.83240000  0.12600000  0.30400000  1
  C  C933  1  0.81660000  0.14200000  0.27770000  1
  C  C934  1  0.16760000  0.12600000  0.69600000  1
  C  C935  1  0.18340000  0.14200000  0.72230000  1
  C  C936  1  0.30400000  0.16760000  0.87400000  1
  C  C937  1  0.27770000  0.18340000  0.85800000  1
  C  C938  1  0.25220000  0.84100000  0.12720000  1
  C  C939  1  0.27850000  0.85800000  0.11090000  1
  C  C940  1  0.69600000  0.16760000  0.12600000  1
  C  C941  1  0.72230000  0.18340000  0.14200000  1
  C  C942  1  0.87280000  0.25220000  0.15900000  1
  C  C943  1  0.88910000  0.27850000  0.14200000  1
  C  C944  1  0.12600000  0.30400000  0.83240000  1
  C  C945  1  0.14200000  0.27770000  0.81660000  1
  C  C946  1  0.12600000  0.69600000  0.16760000  1
  C  C947  1  0.14200000  0.72230000  0.18340000  1
  C  C948  1  0.12720000  0.15900000  0.25220000  1
  C  C949  1  0.11090000  0.14200000  0.27850000  1
  C  C950  1  0.15900000  0.25220000  0.12720000  1
  C  C951  1  0.14200000  0.27850000  0.11090000  1
  C  C952  1  0.25220000  0.12720000  0.15900000  1
  C  C953  1  0.27850000  0.11090000  0.14200000  1
  C  C954  1  0.16410000  0.20780000  0.20780000  1
  C  C955  1  0.20780000  0.16410000  0.20780000  1
  C  C956  1  0.20780000  0.20780000  0.16410000  1
  C  C957  1  0.20780000  0.83590000  0.20780000  1
  C  C958  1  0.79220000  0.16410000  0.20780000  1
  C  C959  1  0.20780000  0.16410000  0.79220000  1
  C  C960  1  0.16410000  0.79220000  0.20780000  1
  C  C961  1  0.16410000  0.20780000  0.79220000  1
  C  C962  1  0.83590000  0.20780000  0.20780000  1
  C  C963  1  0.79220000  0.20780000  0.16410000  1
  C  C964  1  0.20780000  0.20780000  0.83590000  1
  C  C965  1  0.20780000  0.79220000  0.16410000  1
  C  C966  1  0.05730000  0.05730000  0.41090000  1
  C  C967  1  0.11730000  0.11730000  0.36850000  1
  C  C968  1  0.07460000  0.07460000  0.38280000  1
  C  C969  1  0.11070000  0.11070000  0.33230000  1
  C  C970  1  0.10010000  0.10010000  0.39260000  1
  C  C971  1  0.08640000  0.08640000  0.32270000  1
  C  C972  1  0.06780000  0.06780000  0.34930000  1
  C  C973  1  0.13030000  0.13030000  0.30720000  1
  C  C974  1  0.17880000  0.17880000  0.22280000  1
  C  C975  1  0.16360000  0.16360000  0.25370000  1
  C  C976  1  0.41090000  0.05730000  0.05730000  1
  C  C977  1  0.36850000  0.11730000  0.11730000  1
  C  C978  1  0.38280000  0.07460000  0.07460000  1
  C  C979  1  0.33230000  0.11070000  0.11070000  1
  C  C980  1  0.39260000  0.10010000  0.10010000  1
  C  C981  1  0.32270000  0.08640000  0.08640000  1
  C  C982  1  0.34930000  0.06780000  0.06780000  1
  C  C983  1  0.30720000  0.13030000  0.13030000  1
  C  C984  1  0.22280000  0.17880000  0.17880000  1
  C  C985  1  0.25370000  0.16360000  0.16360000  1
  C  C986  1  0.05730000  0.41090000  0.05730000  1
  C  C987  1  0.11730000  0.36850000  0.11730000  1
  C  C988  1  0.07460000  0.38280000  0.07460000  1
  C  C989  1  0.11070000  0.33230000  0.11070000  1
  C  C990  1  0.10010000  0.39260000  0.10010000  1
  C  C991  1  0.08640000  0.32270000  0.08640000  1
  C  C992  1  0.06780000  0.34930000  0.06780000  1
  C  C993  1  0.13030000  0.30720000  0.13030000  1
  C  C994  1  0.17880000  0.22280000  0.17880000  1
  C  C995  1  0.16360000  0.25370000  0.16360000  1
  C  C996  1  0.05730000  0.94270000  0.41090000  1
  C  C997  1  0.11730000  0.88270000  0.36850000  1
  C  C998  1  0.07460000  0.92540000  0.38280000  1
  C  C999  1  0.11070000  0.88930000  0.33230000  1
  C  C1000  1  0.10010000  0.89990000  0.39260000  1
  C  C1001  1  0.08640000  0.91360000  0.32270000  1
  C  C1002  1  0.06780000  0.93220000  0.34930000  1
  C  C1003  1  0.13030000  0.86970000  0.30720000  1
  C  C1004  1  0.17880000  0.82120000  0.22280000  1
  C  C1005  1  0.16360000  0.83640000  0.25370000  1
  C  C1006  1  0.94270000  0.05730000  0.41090000  1
  C  C1007  1  0.88270000  0.11730000  0.36850000  1
  C  C1008  1  0.92540000  0.07460000  0.38280000  1
  C  C1009  1  0.88930000  0.11070000  0.33230000  1
  C  C1010  1  0.89990000  0.10010000  0.39260000  1
  C  C1011  1  0.91360000  0.08640000  0.32270000  1
  C  C1012  1  0.93220000  0.06780000  0.34930000  1
  C  C1013  1  0.86970000  0.13030000  0.30720000  1
  C  C1014  1  0.82120000  0.17880000  0.22280000  1
  C  C1015  1  0.83640000  0.16360000  0.25370000  1
  C  C1016  1  0.05730000  0.05730000  0.58910000  1
  C  C1017  1  0.11730000  0.11730000  0.63150000  1
  C  C1018  1  0.07460000  0.07460000  0.61720000  1
  C  C1019  1  0.11070000  0.11070000  0.66770000  1
  C  C1020  1  0.10010000  0.10010000  0.60740000  1
  C  C1021  1  0.08640000  0.08640000  0.67730000  1
  C  C1022  1  0.06780000  0.06780000  0.65070000  1
  C  C1023  1  0.13030000  0.13030000  0.69280000  1
  C  C1024  1  0.17880000  0.17880000  0.77720000  1
  C  C1025  1  0.16360000  0.16360000  0.74630000  1
  C  C1026  1  0.05730000  0.58910000  0.05730000  1
  C  C1027  1  0.11730000  0.63150000  0.11730000  1
  C  C1028  1  0.07460000  0.61720000  0.07460000  1
  C  C1029  1  0.11070000  0.66770000  0.11070000  1
  C  C1030  1  0.10010000  0.60740000  0.10010000  1
  C  C1031  1  0.08640000  0.67730000  0.08640000  1
  C  C1032  1  0.06780000  0.65070000  0.06780000  1
  C  C1033  1  0.13030000  0.69280000  0.13030000  1
  C  C1034  1  0.17880000  0.77720000  0.17880000  1
  C  C1035  1  0.16360000  0.74630000  0.16360000  1
  C  C1036  1  0.05730000  0.41090000  0.94270000  1
  C  C1037  1  0.11730000  0.36850000  0.88270000  1
  C  C1038  1  0.07460000  0.38280000  0.92540000  1
  C  C1039  1  0.11070000  0.33230000  0.88930000  1
  C  C1040  1  0.10010000  0.39260000  0.89990000  1
  C  C1041  1  0.08640000  0.32270000  0.91360000  1
  C  C1042  1  0.06780000  0.34930000  0.93220000  1
  C  C1043  1  0.13030000  0.30720000  0.86970000  1
  C  C1044  1  0.17880000  0.22280000  0.82120000  1
  C  C1045  1  0.16360000  0.25370000  0.83640000  1
  C  C1046  1  0.94270000  0.41090000  0.05730000  1
  C  C1047  1  0.88270000  0.36850000  0.11730000  1
  C  C1048  1  0.92540000  0.38280000  0.07460000  1
  C  C1049  1  0.88930000  0.33230000  0.11070000  1
  C  C1050  1  0.89990000  0.39260000  0.10010000  1
  C  C1051  1  0.91360000  0.32270000  0.08640000  1
  C  C1052  1  0.93220000  0.34930000  0.06780000  1
  C  C1053  1  0.86970000  0.30720000  0.13030000  1
  C  C1054  1  0.82120000  0.22280000  0.17880000  1
  C  C1055  1  0.83640000  0.25370000  0.16360000  1
  C  C1056  1  0.58910000  0.05730000  0.05730000  1
  C  C1057  1  0.63150000  0.11730000  0.11730000  1
  C  C1058  1  0.61720000  0.07460000  0.07460000  1
  C  C1059  1  0.66770000  0.11070000  0.11070000  1
  C  C1060  1  0.60740000  0.10010000  0.10010000  1
  C  C1061  1  0.67730000  0.08640000  0.08640000  1
  C  C1062  1  0.65070000  0.06780000  0.06780000  1
  C  C1063  1  0.69280000  0.13030000  0.13030000  1
  C  C1064  1  0.77720000  0.17880000  0.17880000  1
  C  C1065  1  0.74630000  0.16360000  0.16360000  1
  C  C1066  1  0.41090000  0.05730000  0.94270000  1
  C  C1067  1  0.36850000  0.11730000  0.88270000  1
  C  C1068  1  0.38280000  0.07460000  0.92540000  1
  C  C1069  1  0.33230000  0.11070000  0.88930000  1
  C  C1070  1  0.39260000  0.10010000  0.89990000  1
  C  C1071  1  0.32270000  0.08640000  0.91360000  1
  C  C1072  1  0.34930000  0.06780000  0.93220000  1
  C  C1073  1  0.30720000  0.13030000  0.86970000  1
  C  C1074  1  0.22280000  0.17880000  0.82120000  1
  C  C1075  1  0.25370000  0.16360000  0.83640000  1
  C  C1076  1  0.41090000  0.94270000  0.05730000  1
  C  C1077  1  0.36850000  0.88270000  0.11730000  1
  C  C1078  1  0.38280000  0.92540000  0.07460000  1
  C  C1079  1  0.33230000  0.88930000  0.11070000  1
  C  C1080  1  0.39260000  0.89990000  0.10010000  1
  C  C1081  1  0.32270000  0.91360000  0.08640000  1
  C  C1082  1  0.34930000  0.93220000  0.06780000  1
  C  C1083  1  0.30720000  0.86970000  0.13030000  1
  C  C1084  1  0.22280000  0.82120000  0.17880000  1
  C  C1085  1  0.25370000  0.83640000  0.16360000  1
  C  C1086  1  0.84100000  0.12720000  0.74780000  1
  C  C1087  1  0.85800000  0.11090000  0.72150000  1
  C  C1088  1  0.74780000  0.15900000  0.87280000  1
  C  C1089  1  0.72150000  0.14200000  0.88910000  1
  C  C1090  1  0.87400000  0.30400000  0.83240000  1
  C  C1091  1  0.85800000  0.27770000  0.81660000  1
  C  C1092  1  0.87400000  0.16760000  0.69600000  1
  C  C1093  1  0.85800000  0.18340000  0.72230000  1
  C  C1094  1  0.84100000  0.25220000  0.87280000  1
  C  C1095  1  0.85800000  0.27850000  0.88910000  1
  C  C1096  1  0.69600000  0.12600000  0.83240000  1
  C  C1097  1  0.72230000  0.14200000  0.81660000  1
  C  C1098  1  0.83590000  0.20780000  0.79220000  1
  C  C1099  1  0.79220000  0.16410000  0.79220000  1
  C  C1100  1  0.79220000  0.20780000  0.83590000  1
  C  C1101  1  0.94270000  0.05730000  0.58910000  1
  C  C1102  1  0.88270000  0.11730000  0.63150000  1
  C  C1103  1  0.92540000  0.07460000  0.61720000  1
  C  C1104  1  0.88930000  0.11070000  0.66770000  1
  C  C1105  1  0.89990000  0.10010000  0.60740000  1
  C  C1106  1  0.91360000  0.08640000  0.67730000  1
  C  C1107  1  0.93220000  0.06780000  0.65070000  1
  C  C1108  1  0.86970000  0.13030000  0.69280000  1
  C  C1109  1  0.82120000  0.17880000  0.77720000  1
  C  C1110  1  0.83640000  0.16360000  0.74630000  1
  C  C1111  1  0.58910000  0.05730000  0.94270000  1
  C  C1112  1  0.63150000  0.11730000  0.88270000  1
  C  C1113  1  0.61720000  0.07460000  0.92540000  1
  C  C1114  1  0.66770000  0.11070000  0.88930000  1
  C  C1115  1  0.60740000  0.10010000  0.89990000  1
  C  C1116  1  0.67730000  0.08640000  0.91360000  1
  C  C1117  1  0.65070000  0.06780000  0.93220000  1
  C  C1118  1  0.69280000  0.13030000  0.86970000  1
  C  C1119  1  0.77720000  0.17880000  0.82120000  1
  C  C1120  1  0.74630000  0.16360000  0.83640000  1
  C  C1121  1  0.94270000  0.41090000  0.94270000  1
  C  C1122  1  0.88270000  0.36850000  0.88270000  1
  C  C1123  1  0.92540000  0.38280000  0.92540000  1
  C  C1124  1  0.88930000  0.33230000  0.88930000  1
  C  C1125  1  0.89990000  0.39260000  0.89990000  1
  C  C1126  1  0.91360000  0.32270000  0.91360000  1
  C  C1127  1  0.93220000  0.34930000  0.93220000  1
  C  C1128  1  0.86970000  0.30720000  0.86970000  1
  C  C1129  1  0.82120000  0.22280000  0.82120000  1
  C  C1130  1  0.83640000  0.25370000  0.83640000  1
  C  C1131  1  0.16760000  0.87400000  0.69600000  1
  C  C1132  1  0.18340000  0.85800000  0.72230000  1
  C  C1133  1  0.30400000  0.83240000  0.87400000  1
  C  C1134  1  0.27770000  0.81660000  0.85800000  1
  C  C1135  1  0.12720000  0.74780000  0.84100000  1
  C  C1136  1  0.11090000  0.72150000  0.85800000  1
  C  C1137  1  0.12720000  0.84100000  0.74780000  1
  C  C1138  1  0.11090000  0.85800000  0.72150000  1
  C  C1139  1  0.16760000  0.69600000  0.87400000  1
  C  C1140  1  0.18340000  0.72230000  0.85800000  1
  C  C1141  1  0.25220000  0.87280000  0.84100000  1
  C  C1142  1  0.27850000  0.88910000  0.85800000  1
  C  C1143  1  0.16410000  0.79220000  0.79220000  1
  C  C1144  1  0.20780000  0.83590000  0.79220000  1
  C  C1145  1  0.20780000  0.79220000  0.83590000  1
  C  C1146  1  0.05730000  0.94270000  0.58910000  1
  C  C1147  1  0.11730000  0.88270000  0.63150000  1
  C  C1148  1  0.07460000  0.92540000  0.61720000  1
  C  C1149  1  0.11070000  0.88930000  0.66770000  1
  C  C1150  1  0.10010000  0.89990000  0.60740000  1
  C  C1151  1  0.08640000  0.91360000  0.67730000  1
  C  C1152  1  0.06780000  0.93220000  0.65070000  1
  C  C1153  1  0.13030000  0.86970000  0.69280000  1
  C  C1154  1  0.17880000  0.82120000  0.77720000  1
  C  C1155  1  0.16360000  0.83640000  0.74630000  1
  C  C1156  1  0.41090000  0.94270000  0.94270000  1
  C  C1157  1  0.36850000  0.88270000  0.88270000  1
  C  C1158  1  0.38280000  0.92540000  0.92540000  1
  C  C1159  1  0.33230000  0.88930000  0.88930000  1
  C  C1160  1  0.39260000  0.89990000  0.89990000  1
  C  C1161  1  0.32270000  0.91360000  0.91360000  1
  C  C1162  1  0.34930000  0.93220000  0.93220000  1
  C  C1163  1  0.30720000  0.86970000  0.86970000  1
  C  C1164  1  0.22280000  0.82120000  0.82120000  1
  C  C1165  1  0.25370000  0.83640000  0.83640000  1
  C  C1166  1  0.05730000  0.58910000  0.94270000  1
  C  C1167  1  0.11730000  0.63150000  0.88270000  1
  C  C1168  1  0.07460000  0.61720000  0.92540000  1
  C  C1169  1  0.11070000  0.66770000  0.88930000  1
  C  C1170  1  0.10010000  0.60740000  0.89990000  1
  C  C1171  1  0.08640000  0.67730000  0.91360000  1
  C  C1172  1  0.06780000  0.65070000  0.93220000  1
  C  C1173  1  0.13030000  0.69280000  0.86970000  1
  C  C1174  1  0.17880000  0.77720000  0.82120000  1
  C  C1175  1  0.16360000  0.74630000  0.83640000  1
  C  C1176  1  0.84100000  0.87280000  0.25220000  1
  C  C1177  1  0.85800000  0.88910000  0.27850000  1
  C  C1178  1  0.69600000  0.83240000  0.12600000  1
  C  C1179  1  0.72230000  0.81660000  0.14200000  1
  C  C1180  1  0.87400000  0.69600000  0.16760000  1
  C  C1181  1  0.85800000  0.72230000  0.18340000  1
  C  C1182  1  0.87400000  0.83240000  0.30400000  1
  C  C1183  1  0.85800000  0.81660000  0.27770000  1
  C  C1184  1  0.84100000  0.74780000  0.12720000  1
  C  C1185  1  0.85800000  0.72150000  0.11090000  1
  C  C1186  1  0.74780000  0.87280000  0.15900000  1
  C  C1187  1  0.72150000  0.88910000  0.14200000  1
  C  C1188  1  0.83590000  0.79220000  0.20780000  1
  C  C1189  1  0.79220000  0.83590000  0.20780000  1
  C  C1190  1  0.79220000  0.79220000  0.16410000  1
  C  C1191  1  0.94270000  0.94270000  0.41090000  1
  C  C1192  1  0.88270000  0.88270000  0.36850000  1
  C  C1193  1  0.92540000  0.92540000  0.38280000  1
  C  C1194  1  0.88930000  0.88930000  0.33230000  1
  C  C1195  1  0.89990000  0.89990000  0.39260000  1
  C  C1196  1  0.91360000  0.91360000  0.32270000  1
  C  C1197  1  0.93220000  0.93220000  0.34930000  1
  C  C1198  1  0.86970000  0.86970000  0.30720000  1
  C  C1199  1  0.82120000  0.82120000  0.22280000  1
  C  C1200  1  0.83640000  0.83640000  0.25370000  1
  C  C1201  1  0.58910000  0.94270000  0.05730000  1
  C  C1202  1  0.63150000  0.88270000  0.11730000  1
  C  C1203  1  0.61720000  0.92540000  0.07460000  1
  C  C1204  1  0.66770000  0.88930000  0.11070000  1
  C  C1205  1  0.60740000  0.89990000  0.10010000  1
  C  C1206  1  0.67730000  0.91360000  0.08640000  1
  C  C1207  1  0.65070000  0.93220000  0.06780000  1
  C  C1208  1  0.69280000  0.86970000  0.13030000  1
  C  C1209  1  0.77720000  0.82120000  0.17880000  1
  C  C1210  1  0.74630000  0.83640000  0.16360000  1
  C  C1211  1  0.94270000  0.58910000  0.05730000  1
  C  C1212  1  0.88270000  0.63150000  0.11730000  1
  C  C1213  1  0.92540000  0.61720000  0.07460000  1
  C  C1214  1  0.88930000  0.66770000  0.11070000  1
  C  C1215  1  0.89990000  0.60740000  0.10010000  1
  C  C1216  1  0.91360000  0.67730000  0.08640000  1
  C  C1217  1  0.93220000  0.65070000  0.06780000  1
  C  C1218  1  0.86970000  0.69280000  0.13030000  1
  C  C1219  1  0.82120000  0.77720000  0.17880000  1
  C  C1220  1  0.83640000  0.74630000  0.16360000  1
  C  C1221  1  0.87280000  0.84100000  0.74780000  1
  C  C1222  1  0.88910000  0.85800000  0.72150000  1
  C  C1223  1  0.84100000  0.74780000  0.87280000  1
  C  C1224  1  0.85800000  0.72150000  0.88910000  1
  C  C1225  1  0.74780000  0.87280000  0.84100000  1
  C  C1226  1  0.72150000  0.88910000  0.85800000  1
  C  C1227  1  0.83240000  0.87400000  0.69600000  1
  C  C1228  1  0.81660000  0.85800000  0.72230000  1
  C  C1229  1  0.69600000  0.83240000  0.87400000  1
  C  C1230  1  0.72230000  0.81660000  0.85800000  1
  C  C1231  1  0.87400000  0.69600000  0.83240000  1
  C  C1232  1  0.85800000  0.72230000  0.81660000  1
  C  C1233  1  0.79220000  0.83590000  0.79220000  1
  C  C1234  1  0.83590000  0.79220000  0.79220000  1
  C  C1235  1  0.79220000  0.79220000  0.83590000  1
  C  C1236  1  0.94270000  0.94270000  0.58910000  1
  C  C1237  1  0.88270000  0.88270000  0.63150000  1
  C  C1238  1  0.92540000  0.92540000  0.61720000  1
  C  C1239  1  0.88930000  0.88930000  0.66770000  1
  C  C1240  1  0.89990000  0.89990000  0.60740000  1
  C  C1241  1  0.91360000  0.91360000  0.67730000  1
  C  C1242  1  0.93220000  0.93220000  0.65070000  1
  C  C1243  1  0.86970000  0.86970000  0.69280000  1
  C  C1244  1  0.82120000  0.82120000  0.77720000  1
  C  C1245  1  0.83640000  0.83640000  0.74630000  1
  C  C1246  1  0.94270000  0.58910000  0.94270000  1
  C  C1247  1  0.88270000  0.63150000  0.88270000  1
  C  C1248  1  0.92540000  0.61720000  0.92540000  1
  C  C1249  1  0.88930000  0.66770000  0.88930000  1
  C  C1250  1  0.89990000  0.60740000  0.89990000  1
  C  C1251  1  0.91360000  0.67730000  0.91360000  1
  C  C1252  1  0.93220000  0.65070000  0.93220000  1
  C  C1253  1  0.86970000  0.69280000  0.86970000  1
  C  C1254  1  0.82120000  0.77720000  0.82120000  1
  C  C1255  1  0.83640000  0.74630000  0.83640000  1
  C  C1256  1  0.58910000  0.94270000  0.94270000  1
  C  C1257  1  0.63150000  0.88270000  0.88270000  1
  C  C1258  1  0.61720000  0.92540000  0.92540000  1
  C  C1259  1  0.66770000  0.88930000  0.88930000  1
  C  C1260  1  0.60740000  0.89990000  0.89990000  1
  C  C1261  1  0.67730000  0.91360000  0.91360000  1
  C  C1262  1  0.65070000  0.93220000  0.93220000  1
  C  C1263  1  0.69280000  0.86970000  0.86970000  1
  C  C1264  1  0.77720000  0.82120000  0.82120000  1
  C  C1265  1  0.74630000  0.83640000  0.83640000  1
  O  O1266  1  0.53560000  0.09070000  0.53560000  1
  O  O1267  1  0.56350000  0.05440000  0.56350000  1
  O  O1268  1  0.46440000  0.90930000  0.53560000  1
  O  O1269  1  0.43650000  0.94560000  0.56350000  1
  O  O1270  1  0.46440000  0.09070000  0.46440000  1
  O  O1271  1  0.43650000  0.05440000  0.43650000  1
  O  O1272  1  0.53560000  0.90930000  0.46440000  1
  O  O1273  1  0.56350000  0.94560000  0.43650000  1
  O  O1274  1  0.53560000  0.53560000  0.09070000  1
  O  O1275  1  0.56350000  0.56350000  0.05440000  1
  O  O1276  1  0.53560000  0.46440000  0.90930000  1
  O  O1277  1  0.56350000  0.43650000  0.94560000  1
  O  O1278  1  0.46440000  0.46440000  0.09070000  1
  O  O1279  1  0.43650000  0.43650000  0.05440000  1
  O  O1280  1  0.46440000  0.53560000  0.90930000  1
  O  O1281  1  0.43650000  0.56350000  0.94560000  1
  O  O1282  1  0.09070000  0.53560000  0.53560000  1
  O  O1283  1  0.05440000  0.56350000  0.56350000  1
  O  O1284  1  0.90930000  0.53560000  0.46440000  1
  O  O1285  1  0.94560000  0.56350000  0.43650000  1
  O  O1286  1  0.09070000  0.46440000  0.46440000  1
  O  O1287  1  0.05440000  0.43650000  0.43650000  1
  O  O1288  1  0.90930000  0.46440000  0.53560000  1
  O  O1289  1  0.94560000  0.43650000  0.56350000  1
  O  O1290  1  0.09070000  0.53560000  0.46440000  1
  O  O1291  1  0.05440000  0.56350000  0.43650000  1
  O  O1292  1  0.90930000  0.46440000  0.46440000  1
  O  O1293  1  0.94560000  0.43650000  0.43650000  1
  O  O1294  1  0.09070000  0.46440000  0.53560000  1
  O  O1295  1  0.05440000  0.43650000  0.56350000  1
  O  O1296  1  0.90930000  0.53560000  0.53560000  1
  O  O1297  1  0.94560000  0.56350000  0.56350000  1
  O  O1298  1  0.53560000  0.53560000  0.90930000  1
  O  O1299  1  0.56350000  0.56350000  0.94560000  1
  O  O1300  1  0.46440000  0.53560000  0.09070000  1
  O  O1301  1  0.43650000  0.56350000  0.05440000  1
  O  O1302  1  0.46440000  0.46440000  0.90930000  1
  O  O1303  1  0.43650000  0.43650000  0.94560000  1
  O  O1304  1  0.53560000  0.46440000  0.09070000  1
  O  O1305  1  0.56350000  0.43650000  0.05440000  1
  O  O1306  1  0.53560000  0.09070000  0.46440000  1
  O  O1307  1  0.56350000  0.05440000  0.43650000  1
  O  O1308  1  0.53560000  0.90930000  0.53560000  1
  O  O1309  1  0.56350000  0.94560000  0.56350000  1
  O  O1310  1  0.46440000  0.09070000  0.53560000  1
  O  O1311  1  0.43650000  0.05440000  0.56350000  1
  O  O1312  1  0.46440000  0.90930000  0.46440000  1
  O  O1313  1  0.43650000  0.94560000  0.43650000  1
  O  O1314  1  0.54690000  0.03250000  0.50000000  1
  O  O1315  1  0.45310000  0.96750000  0.50000000  1
  O  O1316  1  0.45310000  0.03250000  0.50000000  1
  O  O1317  1  0.54690000  0.96750000  0.50000000  1
  O  O1318  1  0.50000000  0.54690000  0.03250000  1
  O  O1319  1  0.50000000  0.45310000  0.96750000  1
  O  O1320  1  0.50000000  0.45310000  0.03250000  1
  O  O1321  1  0.50000000  0.54690000  0.96750000  1
  O  O1322  1  0.03250000  0.50000000  0.54690000  1
  O  O1323  1  0.96750000  0.50000000  0.45310000  1
  O  O1324  1  0.03250000  0.50000000  0.45310000  1
  O  O1325  1  0.96750000  0.50000000  0.54690000  1
  O  O1326  1  0.03250000  0.54690000  0.50000000  1
  O  O1327  1  0.96750000  0.45310000  0.50000000  1
  O  O1328  1  0.03250000  0.45310000  0.50000000  1
  O  O1329  1  0.96750000  0.54690000  0.50000000  1
  O  O1330  1  0.54690000  0.50000000  0.96750000  1
  O  O1331  1  0.45310000  0.50000000  0.03250000  1
  O  O1332  1  0.45310000  0.50000000  0.96750000  1
  O  O1333  1  0.54690000  0.50000000  0.03250000  1
  O  O1334  1  0.50000000  0.03250000  0.45310000  1
  O  O1335  1  0.50000000  0.96750000  0.54690000  1
  O  O1336  1  0.50000000  0.03250000  0.54690000  1
  O  O1337  1  0.50000000  0.96750000  0.45310000  1
  O  O1338  1  0.54188000  0.00000000  0.60318000  1
  O  O1339  1  0.45812000  0.00000000  0.60318000  1
  O  O1340  1  0.45812000  0.00000000  0.39682000  1
  O  O1341  1  0.54188000  0.00000000  0.39682000  1
  O  O1342  1  0.60318000  0.54188000  0.00000000  1
  O  O1343  1  0.60318000  0.45812000  0.00000000  1
  O  O1344  1  0.39682000  0.45812000  0.00000000  1
  O  O1345  1  0.39682000  0.54188000  0.00000000  1
  O  O1346  1  0.00000000  0.60318000  0.54188000  1
  O  O1347  1  0.00000000  0.60318000  0.45812000  1
  O  O1348  1  0.00000000  0.39682000  0.45812000  1
  O  O1349  1  0.00000000  0.39682000  0.54188000  1
  O  O1350  1  0.00000000  0.54188000  0.39682000  1
  O  O1351  1  0.00000000  0.45812000  0.39682000  1
  O  O1352  1  0.00000000  0.45812000  0.60318000  1
  O  O1353  1  0.00000000  0.54188000  0.60318000  1
  O  O1354  1  0.54188000  0.60318000  0.00000000  1
  O  O1355  1  0.45812000  0.60318000  0.00000000  1
  O  O1356  1  0.45812000  0.39682000  0.00000000  1
  O  O1357  1  0.54188000  0.39682000  0.00000000  1
  O  O1358  1  0.60318000  0.00000000  0.45812000  1
  O  O1359  1  0.60318000  0.00000000  0.54188000  1
  O  O1360  1  0.39682000  0.00000000  0.54188000  1
  O  O1361  1  0.39682000  0.00000000  0.45812000  1
  O  O1362  1  0.89060000  0.04150000  0.50000000  1
  O  O1363  1  0.10940000  0.95850000  0.50000000  1
  O  O1364  1  0.10940000  0.04150000  0.50000000  1
  O  O1365  1  0.89060000  0.95850000  0.50000000  1
  O  O1366  1  0.50000000  0.89060000  0.04150000  1
  O  O1367  1  0.50000000  0.10940000  0.95850000  1
  O  O1368  1  0.50000000  0.10940000  0.04150000  1
  O  O1369  1  0.50000000  0.89060000  0.95850000  1
  O  O1370  1  0.04150000  0.50000000  0.89060000  1
  O  O1371  1  0.95850000  0.50000000  0.10940000  1
  O  O1372  1  0.04150000  0.50000000  0.10940000  1
  O  O1373  1  0.95850000  0.50000000  0.89060000  1
  O  O1374  1  0.04150000  0.89060000  0.50000000  1
  O  O1375  1  0.95850000  0.10940000  0.50000000  1
  O  O1376  1  0.04150000  0.10940000  0.50000000  1
  O  O1377  1  0.95850000  0.89060000  0.50000000  1
  O  O1378  1  0.89060000  0.50000000  0.95850000  1
  O  O1379  1  0.10940000  0.50000000  0.04150000  1
  O  O1380  1  0.10940000  0.50000000  0.95850000  1
  O  O1381  1  0.89060000  0.50000000  0.04150000  1
  O  O1382  1  0.50000000  0.04150000  0.10940000  1
  O  O1383  1  0.50000000  0.95850000  0.89060000  1
  O  O1384  1  0.50000000  0.04150000  0.89060000  1
  O  O1385  1  0.50000000  0.95850000  0.10940000  1
  O  O1386  1  0.03730000  0.03730000  0.39870000  1
  O  O1387  1  0.06400000  0.06400000  0.44080000  1
  O  O1388  1  0.39870000  0.03730000  0.03730000  1
  O  O1389  1  0.44080000  0.06400000  0.06400000  1
  O  O1390  1  0.03730000  0.39870000  0.03730000  1
  O  O1391  1  0.06400000  0.44080000  0.06400000  1
  O  O1392  1  0.03730000  0.96270000  0.39870000  1
  O  O1393  1  0.06400000  0.93600000  0.44080000  1
  O  O1394  1  0.96270000  0.03730000  0.39870000  1
  O  O1395  1  0.93600000  0.06400000  0.44080000  1
  O  O1396  1  0.03730000  0.03730000  0.60130000  1
  O  O1397  1  0.06400000  0.06400000  0.55920000  1
  O  O1398  1  0.03730000  0.60130000  0.03730000  1
  O  O1399  1  0.06400000  0.55920000  0.06400000  1
  O  O1400  1  0.03730000  0.39870000  0.96270000  1
  O  O1401  1  0.06400000  0.44080000  0.93600000  1
  O  O1402  1  0.96270000  0.39870000  0.03730000  1
  O  O1403  1  0.93600000  0.44080000  0.06400000  1
  O  O1404  1  0.60130000  0.03730000  0.03730000  1
  O  O1405  1  0.55920000  0.06400000  0.06400000  1
  O  O1406  1  0.39870000  0.03730000  0.96270000  1
  O  O1407  1  0.44080000  0.06400000  0.93600000  1
  O  O1408  1  0.39870000  0.96270000  0.03730000  1
  O  O1409  1  0.44080000  0.93600000  0.06400000  1
  O  O1410  1  0.00000000  0.03850000  0.52860000  1
  O  O1411  1  0.00000000  0.96150000  0.52860000  1
  O  O1412  1  0.00000000  0.03850000  0.47140000  1
  O  O1413  1  0.00000000  0.96150000  0.47140000  1
  O  O1414  1  0.52860000  0.00000000  0.03850000  1
  O  O1415  1  0.52860000  0.00000000  0.96150000  1
  O  O1416  1  0.47140000  0.00000000  0.03850000  1
  O  O1417  1  0.47140000  0.00000000  0.96150000  1
  O  O1418  1  0.03850000  0.52860000  0.00000000  1
  O  O1419  1  0.96150000  0.52860000  0.00000000  1
  O  O1420  1  0.03850000  0.47140000  0.00000000  1
  O  O1421  1  0.96150000  0.47140000  0.00000000  1
  O  O1422  1  0.03850000  0.00000000  0.47140000  1
  O  O1423  1  0.96150000  0.00000000  0.47140000  1
  O  O1424  1  0.03850000  0.00000000  0.52860000  1
  O  O1425  1  0.96150000  0.00000000  0.52860000  1
  O  O1426  1  0.00000000  0.52860000  0.96150000  1
  O  O1427  1  0.00000000  0.52860000  0.03850000  1
  O  O1428  1  0.00000000  0.47140000  0.96150000  1
  O  O1429  1  0.00000000  0.47140000  0.03850000  1
  O  O1430  1  0.52860000  0.03850000  0.00000000  1
  O  O1431  1  0.52860000  0.96150000  0.00000000  1
  O  O1432  1  0.47140000  0.03850000  0.00000000  1
  O  O1433  1  0.47140000  0.96150000  0.00000000  1
  O  O1434  1  0.96270000  0.03730000  0.60130000  1
  O  O1435  1  0.93600000  0.06400000  0.55920000  1
  O  O1436  1  0.60130000  0.03730000  0.96270000  1
  O  O1437  1  0.55920000  0.06400000  0.93600000  1
  O  O1438  1  0.96270000  0.39870000  0.96270000  1
  O  O1439  1  0.93600000  0.44080000  0.93600000  1
  O  O1440  1  0.03730000  0.96270000  0.60130000  1
  O  O1441  1  0.06400000  0.93600000  0.55920000  1
  O  O1442  1  0.39870000  0.96270000  0.96270000  1
  O  O1443  1  0.44080000  0.93600000  0.93600000  1
  O  O1444  1  0.03730000  0.60130000  0.96270000  1
  O  O1445  1  0.06400000  0.55920000  0.93600000  1
  O  O1446  1  0.96270000  0.96270000  0.39870000  1
  O  O1447  1  0.93600000  0.93600000  0.44080000  1
  O  O1448  1  0.60130000  0.96270000  0.03730000  1
  O  O1449  1  0.55920000  0.93600000  0.06400000  1
  O  O1450  1  0.96270000  0.60130000  0.03730000  1
  O  O1451  1  0.93600000  0.55920000  0.06400000  1
  O  O1452  1  0.96270000  0.96270000  0.60130000  1
  O  O1453  1  0.93600000  0.93600000  0.55920000  1
  O  O1454  1  0.96270000  0.60130000  0.96270000  1
  O  O1455  1  0.93600000  0.55920000  0.93600000  1
  O  O1456  1  0.60130000  0.96270000  0.96270000  1
  O  O1457  1  0.55920000  0.93600000  0.93600000  1
