# generated using pymatgen
data_Zr6H54C93O35
_symmetry_space_group_name_H-M   'P 1'
_cell_length_a   32.67100000
_cell_length_b   32.67100000
_cell_length_c   32.67100000
_cell_angle_alpha   90.00000000
_cell_angle_beta   90.00000000
_cell_angle_gamma   90.00000000
_symmetry_Int_Tables_number   1
_chemical_formula_structural   Zr6H54C93O35
_chemical_formula_sum   'Zr48 H432 C744 O280'
_cell_volume   34872.83724771
_cell_formula_units_Z   8
loop_
 _symmetry_equiv_pos_site_id
 _symmetry_equiv_pos_as_xyz
  1  'x, y, z'
loop_
 _atom_site_type_symbol
 _atom_site_label
 _atom_site_symmetry_multiplicity
 _atom_site_fract_x
 _atom_site_fract_y
 _atom_site_fract_z
 _atom_site_occupancy
  Zr  Zr0  1  0.21779000  0.69679000  0.22520000  1
  Zr  Zr1  1  0.17643000  0.79523000  0.23735000  1
  Zr  Zr2  1  0.05321000  0.46779000  0.97520000  1
  Zr  Zr3  1  0.95477000  0.42643000  0.98735000  1
  Zr  Zr4  1  0.28221000  0.30321000  0.72520000  1
  Zr  Zr5  1  0.32357000  0.20477000  0.73735000  1
  Zr  Zr6  1  0.44679000  0.53221000  0.47520000  1
  Zr  Zr7  1  0.54523000  0.57357000  0.48735000  1
  Zr  Zr8  1  0.71779000  0.80321000  0.77480000  1
  Zr  Zr9  1  0.67643000  0.70477000  0.76265000  1
  Zr  Zr10  1  0.94679000  0.96779000  0.52480000  1
  Zr  Zr11  1  0.04523000  0.92643000  0.51265000  1
  Zr  Zr12  1  0.78221000  0.19679000  0.27480000  1
  Zr  Zr13  1  0.82357000  0.29523000  0.26265000  1
  Zr  Zr14  1  0.55321000  0.03221000  0.02480000  1
  Zr  Zr15  1  0.45477000  0.07357000  0.01265000  1
  Zr  Zr16  1  0.22520000  0.21779000  0.69679000  1
  Zr  Zr17  1  0.23735000  0.17643000  0.79523000  1
  Zr  Zr18  1  0.53221000  0.47520000  0.44679000  1
  Zr  Zr19  1  0.57357000  0.48735000  0.54523000  1
  Zr  Zr20  1  0.27480000  0.78221000  0.19679000  1
  Zr  Zr21  1  0.26265000  0.82357000  0.29523000  1
  Zr  Zr22  1  0.96779000  0.52480000  0.94679000  1
  Zr  Zr23  1  0.92643000  0.51265000  0.04523000  1
  Zr  Zr24  1  0.72520000  0.28221000  0.30321000  1
  Zr  Zr25  1  0.73735000  0.32357000  0.20477000  1
  Zr  Zr26  1  0.46779000  0.97520000  0.05321000  1
  Zr  Zr27  1  0.42643000  0.98735000  0.95477000  1
  Zr  Zr28  1  0.77480000  0.71779000  0.80321000  1
  Zr  Zr29  1  0.76265000  0.67643000  0.70477000  1
  Zr  Zr30  1  0.03221000  0.02480000  0.55321000  1
  Zr  Zr31  1  0.07357000  0.01265000  0.45477000  1
  Zr  Zr32  1  0.69679000  0.22520000  0.21779000  1
  Zr  Zr33  1  0.79523000  0.23735000  0.17643000  1
  Zr  Zr34  1  0.19679000  0.27480000  0.78221000  1
  Zr  Zr35  1  0.29523000  0.26265000  0.82357000  1
  Zr  Zr36  1  0.47520000  0.44679000  0.53221000  1
  Zr  Zr37  1  0.48735000  0.54523000  0.57357000  1
  Zr  Zr38  1  0.30321000  0.72520000  0.28221000  1
  Zr  Zr39  1  0.20477000  0.73735000  0.32357000  1
  Zr  Zr40  1  0.02480000  0.55321000  0.03221000  1
  Zr  Zr41  1  0.01265000  0.45477000  0.07357000  1
  Zr  Zr42  1  0.80321000  0.77480000  0.71779000  1
  Zr  Zr43  1  0.70477000  0.76265000  0.67643000  1
  Zr  Zr44  1  0.97520000  0.05321000  0.46779000  1
  Zr  Zr45  1  0.98735000  0.95477000  0.42643000  1
  Zr  Zr46  1  0.52480000  0.94679000  0.96779000  1
  Zr  Zr47  1  0.51265000  0.04523000  0.92643000  1
  H  H48  1  0.16260000  0.66010000  0.18060000  1
  H  H49  1  0.16020000  0.69970000  0.16950000  1
  H  H50  1  0.00020000  0.64330000  0.88490000  1
  H  H51  1  0.01630000  0.68630000  0.99760000  1
  H  H52  1  0.24920000  0.82360000  0.07960000  1
  H  H53  1  0.08170000  0.78500000  0.93690000  1
  H  H54  1  0.03460000  0.74910000  0.97160000  1
  H  H55  1  0.13350000  0.84980000  0.11060000  1
  H  H56  1  0.32520000  0.91470000  0.94230000  1
  H  H57  1  0.01990000  0.70540000  0.85720000  1
  H  H58  1  0.11870000  0.82450000  0.97250000  1
  H  H59  1  0.26410000  0.88670000  0.92200000  1
  H  H60  1  0.23420000  0.83430000  0.01150000  1
  H  H61  1  0.19370000  0.91970000  0.90110000  1
  H  H62  1  0.27000000  0.96870000  0.03630000  1
  H  H63  1  0.20830000  0.93800000  0.01730000  1
  H  H64  1  0.11910000  0.86250000  0.04410000  1
  H  H65  1  0.16690000  0.90690000  0.28180000  1
  H  H66  1  0.08990000  0.41260000  0.93060000  1
  H  H67  1  0.05030000  0.41020000  0.91950000  1
  H  H68  1  0.10670000  0.25020000  0.63490000  1
  H  H69  1  0.06370000  0.26630000  0.74760000  1
  H  H70  1  0.92640000  0.49920000  0.82960000  1
  H  H71  1  0.96500000  0.33170000  0.68690000  1
  H  H72  1  0.00090000  0.28460000  0.72160000  1
  H  H73  1  0.90020000  0.38350000  0.86060000  1
  H  H74  1  0.83530000  0.57520000  0.69230000  1
  H  H75  1  0.04460000  0.26990000  0.60720000  1
  H  H76  1  0.92550000  0.36870000  0.72250000  1
  H  H77  1  0.86330000  0.51410000  0.67200000  1
  H  H78  1  0.91570000  0.48420000  0.76150000  1
  H  H79  1  0.83030000  0.44370000  0.65110000  1
  H  H80  1  0.78130000  0.52000000  0.78630000  1
  H  H81  1  0.81200000  0.45830000  0.76730000  1
  H  H82  1  0.88750000  0.36910000  0.79410000  1
  H  H83  1  0.84310000  0.41690000  0.03180000  1
  H  H84  1  0.33740000  0.33990000  0.68060000  1
  H  H85  1  0.33980000  0.30030000  0.66950000  1
  H  H86  1  0.49980000  0.35670000  0.38490000  1
  H  H87  1  0.48370000  0.31370000  0.49760000  1
  H  H88  1  0.25080000  0.17640000  0.57960000  1
  H  H89  1  0.41830000  0.21500000  0.43690000  1
  H  H90  1  0.46540000  0.25090000  0.47160000  1
  H  H91  1  0.36650000  0.15020000  0.61060000  1
  H  H92  1  0.17480000  0.08530000  0.44230000  1
  H  H93  1  0.48010000  0.29460000  0.35720000  1
  H  H94  1  0.38130000  0.17550000  0.47250000  1
  H  H95  1  0.23590000  0.11330000  0.42200000  1
  H  H96  1  0.26580000  0.16570000  0.51150000  1
  H  H97  1  0.30630000  0.08030000  0.40110000  1
  H  H98  1  0.23000000  0.03130000  0.53630000  1
  H  H99  1  0.29170000  0.06200000  0.51730000  1
  H  H100  1  0.38090000  0.13750000  0.54410000  1
  H  H101  1  0.33310000  0.09310000  0.78180000  1
  H  H102  1  0.41010000  0.58740000  0.43060000  1
  H  H103  1  0.44970000  0.58980000  0.41950000  1
  H  H104  1  0.39330000  0.74980000  0.13490000  1
  H  H105  1  0.43630000  0.73370000  0.24760000  1
  H  H106  1  0.57360000  0.50080000  0.32960000  1
  H  H107  1  0.53500000  0.66830000  0.18690000  1
  H  H108  1  0.49910000  0.71540000  0.22160000  1
  H  H109  1  0.59980000  0.61650000  0.36060000  1
  H  H110  1  0.66470000  0.42480000  0.19230000  1
  H  H111  1  0.45540000  0.73010000  0.10720000  1
  H  H112  1  0.57450000  0.63130000  0.22250000  1
  H  H113  1  0.63670000  0.48590000  0.17200000  1
  H  H114  1  0.58430000  0.51580000  0.26150000  1
  H  H115  1  0.66970000  0.55630000  0.15110000  1
  H  H116  1  0.71870000  0.48000000  0.28630000  1
  H  H117  1  0.68800000  0.54170000  0.26730000  1
  H  H118  1  0.61250000  0.63090000  0.29410000  1
  H  H119  1  0.65690000  0.58310000  0.53180000  1
  H  H120  1  0.66260000  0.83990000  0.81940000  1
  H  H121  1  0.66020000  0.80030000  0.83050000  1
  H  H122  1  0.50020000  0.85670000  0.11510000  1
  H  H123  1  0.51630000  0.81370000  0.00240000  1
  H  H124  1  0.74920000  0.67640000  0.92040000  1
  H  H125  1  0.58170000  0.71500000  0.06310000  1
  H  H126  1  0.53460000  0.75090000  0.02840000  1
  H  H127  1  0.63350000  0.65020000  0.88940000  1
  H  H128  1  0.82520000  0.58530000  0.05770000  1
  H  H129  1  0.51990000  0.79460000  0.14280000  1
  H  H130  1  0.61870000  0.67550000  0.02750000  1
  H  H131  1  0.76410000  0.61330000  0.07800000  1
  H  H132  1  0.73420000  0.66570000  0.98850000  1
  H  H133  1  0.69370000  0.58030000  0.09890000  1
  H  H134  1  0.77000000  0.53130000  0.96370000  1
  H  H135  1  0.70830000  0.56200000  0.98270000  1
  H  H136  1  0.61910000  0.63750000  0.95590000  1
  H  H137  1  0.66690000  0.59310000  0.71820000  1
  H  H138  1  0.91010000  0.91260000  0.56940000  1
  H  H139  1  0.94970000  0.91020000  0.58050000  1
  H  H140  1  0.89330000  0.75020000  0.86510000  1
  H  H141  1  0.93630000  0.76630000  0.75240000  1
  H  H142  1  0.07360000  0.99920000  0.67040000  1
  H  H143  1  0.03500000  0.83170000  0.81310000  1
  H  H144  1  0.99910000  0.78460000  0.77840000  1
  H  H145  1  0.09980000  0.88350000  0.63940000  1
  H  H146  1  0.16470000  0.07520000  0.80770000  1
  H  H147  1  0.95540000  0.76990000  0.89280000  1
  H  H148  1  0.07450000  0.86870000  0.77750000  1
  H  H149  1  0.13670000  0.01410000  0.82800000  1
  H  H150  1  0.08430000  0.98420000  0.73850000  1
  H  H151  1  0.16970000  0.94370000  0.84890000  1
  H  H152  1  0.21870000  0.02000000  0.71370000  1
  H  H153  1  0.18800000  0.95830000  0.73270000  1
  H  H154  1  0.11250000  0.86910000  0.70590000  1
  H  H155  1  0.15690000  0.91690000  0.46820000  1
  H  H156  1  0.83740000  0.16010000  0.31940000  1
  H  H157  1  0.83980000  0.19970000  0.33050000  1
  H  H158  1  0.99980000  0.14330000  0.61510000  1
  H  H159  1  0.98370000  0.18630000  0.50240000  1
  H  H160  1  0.75080000  0.32360000  0.42040000  1
  H  H161  1  0.91830000  0.28500000  0.56310000  1
  H  H162  1  0.96540000  0.24910000  0.52840000  1
  H  H163  1  0.86650000  0.34980000  0.38940000  1
  H  H164  1  0.67480000  0.41470000  0.55770000  1
  H  H165  1  0.98010000  0.20540000  0.64280000  1
  H  H166  1  0.88130000  0.32450000  0.52750000  1
  H  H167  1  0.73590000  0.38670000  0.57800000  1
  H  H168  1  0.76580000  0.33430000  0.48850000  1
  H  H169  1  0.80630000  0.41970000  0.59890000  1
  H  H170  1  0.73000000  0.46870000  0.46370000  1
  H  H171  1  0.79170000  0.43800000  0.48270000  1
  H  H172  1  0.88090000  0.36250000  0.45590000  1
  H  H173  1  0.83310000  0.40690000  0.21820000  1
  H  H174  1  0.58990000  0.08740000  0.06940000  1
  H  H175  1  0.55030000  0.08980000  0.08050000  1
  H  H176  1  0.60670000  0.24980000  0.36510000  1
  H  H177  1  0.56370000  0.23370000  0.25240000  1
  H  H178  1  0.42640000  0.00080000  0.17040000  1
  H  H179  1  0.46500000  0.16830000  0.31310000  1
  H  H180  1  0.50090000  0.21540000  0.27840000  1
  H  H181  1  0.40020000  0.11650000  0.13940000  1
  H  H182  1  0.33530000  0.92480000  0.30770000  1
  H  H183  1  0.54460000  0.23010000  0.39280000  1
  H  H184  1  0.42550000  0.13130000  0.27750000  1
  H  H185  1  0.36330000  0.98590000  0.32800000  1
  H  H186  1  0.41570000  0.01580000  0.23850000  1
  H  H187  1  0.33030000  0.05630000  0.34890000  1
  H  H188  1  0.28130000  0.98000000  0.21370000  1
  H  H189  1  0.31200000  0.04170000  0.23270000  1
  H  H190  1  0.38750000  0.13090000  0.20590000  1
  H  H191  1  0.34310000  0.08310000  0.96820000  1
  H  H192  1  0.18060000  0.16260000  0.66010000  1
  H  H193  1  0.16950000  0.16020000  0.69970000  1
  H  H194  1  0.88490000  0.00020000  0.64330000  1
  H  H195  1  0.99760000  0.01630000  0.68630000  1
  H  H196  1  0.07960000  0.24920000  0.82360000  1
  H  H197  1  0.93690000  0.08170000  0.78500000  1
  H  H198  1  0.97160000  0.03460000  0.74910000  1
  H  H199  1  0.11060000  0.13350000  0.84980000  1
  H  H200  1  0.94230000  0.32520000  0.91470000  1
  H  H201  1  0.85720000  0.01990000  0.70540000  1
  H  H202  1  0.97250000  0.11870000  0.82450000  1
  H  H203  1  0.92200000  0.26410000  0.88670000  1
  H  H204  1  0.01150000  0.23420000  0.83430000  1
  H  H205  1  0.90110000  0.19370000  0.91970000  1
  H  H206  1  0.03630000  0.27000000  0.96870000  1
  H  H207  1  0.01730000  0.20830000  0.93800000  1
  H  H208  1  0.04410000  0.11910000  0.86250000  1
  H  H209  1  0.28180000  0.16690000  0.90690000  1
  H  H210  1  0.58740000  0.43060000  0.41010000  1
  H  H211  1  0.58980000  0.41950000  0.44970000  1
  H  H212  1  0.74980000  0.13490000  0.39330000  1
  H  H213  1  0.73370000  0.24760000  0.43630000  1
  H  H214  1  0.50080000  0.32960000  0.57360000  1
  H  H215  1  0.66830000  0.18690000  0.53500000  1
  H  H216  1  0.71540000  0.22160000  0.49910000  1
  H  H217  1  0.61650000  0.36060000  0.59980000  1
  H  H218  1  0.42480000  0.19230000  0.66470000  1
  H  H219  1  0.73010000  0.10720000  0.45540000  1
  H  H220  1  0.63130000  0.22250000  0.57450000  1
  H  H221  1  0.48590000  0.17200000  0.63670000  1
  H  H222  1  0.51580000  0.26150000  0.58430000  1
  H  H223  1  0.55630000  0.15110000  0.66970000  1
  H  H224  1  0.48000000  0.28630000  0.71870000  1
  H  H225  1  0.54170000  0.26730000  0.68800000  1
  H  H226  1  0.63090000  0.29410000  0.61250000  1
  H  H227  1  0.58310000  0.53180000  0.65690000  1
  H  H228  1  0.31940000  0.83740000  0.16010000  1
  H  H229  1  0.33050000  0.83980000  0.19970000  1
  H  H230  1  0.61510000  0.99980000  0.14330000  1
  H  H231  1  0.50240000  0.98370000  0.18630000  1
  H  H232  1  0.42040000  0.75080000  0.32360000  1
  H  H233  1  0.56310000  0.91830000  0.28500000  1
  H  H234  1  0.52840000  0.96540000  0.24910000  1
  H  H235  1  0.38940000  0.86650000  0.34980000  1
  H  H236  1  0.55770000  0.67480000  0.41470000  1
  H  H237  1  0.64280000  0.98010000  0.20540000  1
  H  H238  1  0.52750000  0.88130000  0.32450000  1
  H  H239  1  0.57800000  0.73590000  0.38670000  1
  H  H240  1  0.48850000  0.76580000  0.33430000  1
  H  H241  1  0.59890000  0.80630000  0.41970000  1
  H  H242  1  0.46370000  0.73000000  0.46870000  1
  H  H243  1  0.48270000  0.79170000  0.43800000  1
  H  H244  1  0.45590000  0.88090000  0.36250000  1
  H  H245  1  0.21820000  0.83310000  0.40690000  1
  H  H246  1  0.91260000  0.56940000  0.91010000  1
  H  H247  1  0.91020000  0.58050000  0.94970000  1
  H  H248  1  0.75020000  0.86510000  0.89330000  1
  H  H249  1  0.76630000  0.75240000  0.93630000  1
  H  H250  1  0.99920000  0.67040000  0.07360000  1
  H  H251  1  0.83170000  0.81310000  0.03500000  1
  H  H252  1  0.78460000  0.77840000  0.99910000  1
  H  H253  1  0.88350000  0.63940000  0.09980000  1
  H  H254  1  0.07520000  0.80770000  0.16470000  1
  H  H255  1  0.76990000  0.89280000  0.95540000  1
  H  H256  1  0.86870000  0.77750000  0.07450000  1
  H  H257  1  0.01410000  0.82800000  0.13670000  1
  H  H258  1  0.98420000  0.73850000  0.08430000  1
  H  H259  1  0.94370000  0.84890000  0.16970000  1
  H  H260  1  0.02000000  0.71370000  0.21870000  1
  H  H261  1  0.95830000  0.73270000  0.18800000  1
  H  H262  1  0.86910000  0.70590000  0.11250000  1
  H  H263  1  0.91690000  0.46820000  0.15690000  1
  H  H264  1  0.68060000  0.33740000  0.33990000  1
  H  H265  1  0.66950000  0.33980000  0.30030000  1
  H  H266  1  0.38490000  0.49980000  0.35670000  1
  H  H267  1  0.49760000  0.48370000  0.31370000  1
  H  H268  1  0.57960000  0.25080000  0.17640000  1
  H  H269  1  0.43690000  0.41830000  0.21500000  1
  H  H270  1  0.47160000  0.46540000  0.25090000  1
  H  H271  1  0.61060000  0.36650000  0.15020000  1
  H  H272  1  0.44230000  0.17480000  0.08530000  1
  H  H273  1  0.35720000  0.48010000  0.29460000  1
  H  H274  1  0.47250000  0.38130000  0.17550000  1
  H  H275  1  0.42200000  0.23590000  0.11330000  1
  H  H276  1  0.51150000  0.26580000  0.16570000  1
  H  H277  1  0.40110000  0.30630000  0.08030000  1
  H  H278  1  0.53630000  0.23000000  0.03130000  1
  H  H279  1  0.51730000  0.29170000  0.06200000  1
  H  H280  1  0.54410000  0.38090000  0.13750000  1
  H  H281  1  0.78180000  0.33310000  0.09310000  1
  H  H282  1  0.41260000  0.93060000  0.08990000  1
  H  H283  1  0.41020000  0.91950000  0.05030000  1
  H  H284  1  0.25020000  0.63490000  0.10670000  1
  H  H285  1  0.26630000  0.74760000  0.06370000  1
  H  H286  1  0.49920000  0.82960000  0.92640000  1
  H  H287  1  0.33170000  0.68690000  0.96500000  1
  H  H288  1  0.28460000  0.72160000  0.00090000  1
  H  H289  1  0.38350000  0.86060000  0.90020000  1
  H  H290  1  0.57520000  0.69230000  0.83530000  1
  H  H291  1  0.26990000  0.60720000  0.04460000  1
  H  H292  1  0.36870000  0.72250000  0.92550000  1
  H  H293  1  0.51410000  0.67200000  0.86330000  1
  H  H294  1  0.48420000  0.76150000  0.91570000  1
  H  H295  1  0.44370000  0.65110000  0.83030000  1
  H  H296  1  0.52000000  0.78630000  0.78130000  1
  H  H297  1  0.45830000  0.76730000  0.81200000  1
  H  H298  1  0.36910000  0.79410000  0.88750000  1
  H  H299  1  0.41690000  0.03180000  0.84310000  1
  H  H300  1  0.81940000  0.66260000  0.83990000  1
  H  H301  1  0.83050000  0.66020000  0.80030000  1
  H  H302  1  0.11510000  0.50020000  0.85670000  1
  H  H303  1  0.00240000  0.51630000  0.81370000  1
  H  H304  1  0.92040000  0.74920000  0.67640000  1
  H  H305  1  0.06310000  0.58170000  0.71500000  1
  H  H306  1  0.02840000  0.53460000  0.75090000  1
  H  H307  1  0.88940000  0.63350000  0.65020000  1
  H  H308  1  0.05770000  0.82520000  0.58530000  1
  H  H309  1  0.14280000  0.51990000  0.79460000  1
  H  H310  1  0.02750000  0.61870000  0.67550000  1
  H  H311  1  0.07800000  0.76410000  0.61330000  1
  H  H312  1  0.98850000  0.73420000  0.66570000  1
  H  H313  1  0.09890000  0.69370000  0.58030000  1
  H  H314  1  0.96370000  0.77000000  0.53130000  1
  H  H315  1  0.98270000  0.70830000  0.56200000  1
  H  H316  1  0.95590000  0.61910000  0.63750000  1
  H  H317  1  0.71820000  0.66690000  0.59310000  1
  H  H318  1  0.08740000  0.06940000  0.58990000  1
  H  H319  1  0.08980000  0.08050000  0.55030000  1
  H  H320  1  0.24980000  0.36510000  0.60670000  1
  H  H321  1  0.23370000  0.25240000  0.56370000  1
  H  H322  1  0.00080000  0.17040000  0.42640000  1
  H  H323  1  0.16830000  0.31310000  0.46500000  1
  H  H324  1  0.21540000  0.27840000  0.50090000  1
  H  H325  1  0.11650000  0.13940000  0.40020000  1
  H  H326  1  0.92480000  0.30770000  0.33530000  1
  H  H327  1  0.23010000  0.39280000  0.54460000  1
  H  H328  1  0.13130000  0.27750000  0.42550000  1
  H  H329  1  0.98590000  0.32800000  0.36330000  1
  H  H330  1  0.01580000  0.23850000  0.41570000  1
  H  H331  1  0.05630000  0.34890000  0.33030000  1
  H  H332  1  0.98000000  0.21370000  0.28130000  1
  H  H333  1  0.04170000  0.23270000  0.31200000  1
  H  H334  1  0.13090000  0.20590000  0.38750000  1
  H  H335  1  0.08310000  0.96820000  0.34310000  1
  H  H336  1  0.66010000  0.18060000  0.16260000  1
  H  H337  1  0.69970000  0.16950000  0.16020000  1
  H  H338  1  0.64330000  0.88490000  0.00020000  1
  H  H339  1  0.68630000  0.99760000  0.01630000  1
  H  H340  1  0.82360000  0.07960000  0.24920000  1
  H  H341  1  0.78500000  0.93690000  0.08170000  1
  H  H342  1  0.74910000  0.97160000  0.03460000  1
  H  H343  1  0.84980000  0.11060000  0.13350000  1
  H  H344  1  0.91470000  0.94230000  0.32520000  1
  H  H345  1  0.70540000  0.85720000  0.01990000  1
  H  H346  1  0.82450000  0.97250000  0.11870000  1
  H  H347  1  0.88670000  0.92200000  0.26410000  1
  H  H348  1  0.83430000  0.01150000  0.23420000  1
  H  H349  1  0.91970000  0.90110000  0.19370000  1
  H  H350  1  0.96870000  0.03630000  0.27000000  1
  H  H351  1  0.93800000  0.01730000  0.20830000  1
  H  H352  1  0.86250000  0.04410000  0.11910000  1
  H  H353  1  0.90690000  0.28180000  0.16690000  1
  H  H354  1  0.16010000  0.31940000  0.83740000  1
  H  H355  1  0.19970000  0.33050000  0.83980000  1
  H  H356  1  0.14330000  0.61510000  0.99980000  1
  H  H357  1  0.18630000  0.50240000  0.98370000  1
  H  H358  1  0.32360000  0.42040000  0.75080000  1
  H  H359  1  0.28500000  0.56310000  0.91830000  1
  H  H360  1  0.24910000  0.52840000  0.96540000  1
  H  H361  1  0.34980000  0.38940000  0.86650000  1
  H  H362  1  0.41470000  0.55770000  0.67480000  1
  H  H363  1  0.20540000  0.64280000  0.98010000  1
  H  H364  1  0.32450000  0.52750000  0.88130000  1
  H  H365  1  0.38670000  0.57800000  0.73590000  1
  H  H366  1  0.33430000  0.48850000  0.76580000  1
  H  H367  1  0.41970000  0.59890000  0.80630000  1
  H  H368  1  0.46870000  0.46370000  0.73000000  1
  H  H369  1  0.43800000  0.48270000  0.79170000  1
  H  H370  1  0.36250000  0.45590000  0.88090000  1
  H  H371  1  0.40690000  0.21820000  0.83310000  1
  H  H372  1  0.43060000  0.41010000  0.58740000  1
  H  H373  1  0.41950000  0.44970000  0.58980000  1
  H  H374  1  0.13490000  0.39330000  0.74980000  1
  H  H375  1  0.24760000  0.43630000  0.73370000  1
  H  H376  1  0.32960000  0.57360000  0.50080000  1
  H  H377  1  0.18690000  0.53500000  0.66830000  1
  H  H378  1  0.22160000  0.49910000  0.71540000  1
  H  H379  1  0.36060000  0.59980000  0.61650000  1
  H  H380  1  0.19230000  0.66470000  0.42480000  1
  H  H381  1  0.10720000  0.45540000  0.73010000  1
  H  H382  1  0.22250000  0.57450000  0.63130000  1
  H  H383  1  0.17200000  0.63670000  0.48590000  1
  H  H384  1  0.26150000  0.58430000  0.51580000  1
  H  H385  1  0.15110000  0.66970000  0.55630000  1
  H  H386  1  0.28630000  0.71870000  0.48000000  1
  H  H387  1  0.26730000  0.68800000  0.54170000  1
  H  H388  1  0.29410000  0.61250000  0.63090000  1
  H  H389  1  0.53180000  0.65690000  0.58310000  1
  H  H390  1  0.33990000  0.68060000  0.33740000  1
  H  H391  1  0.30030000  0.66950000  0.33980000  1
  H  H392  1  0.35670000  0.38490000  0.49980000  1
  H  H393  1  0.31370000  0.49760000  0.48370000  1
  H  H394  1  0.17640000  0.57960000  0.25080000  1
  H  H395  1  0.21500000  0.43690000  0.41830000  1
  H  H396  1  0.25090000  0.47160000  0.46540000  1
  H  H397  1  0.15020000  0.61060000  0.36650000  1
  H  H398  1  0.08530000  0.44230000  0.17480000  1
  H  H399  1  0.29460000  0.35720000  0.48010000  1
  H  H400  1  0.17550000  0.47250000  0.38130000  1
  H  H401  1  0.11330000  0.42200000  0.23590000  1
  H  H402  1  0.16570000  0.51150000  0.26580000  1
  H  H403  1  0.08030000  0.40110000  0.30630000  1
  H  H404  1  0.03130000  0.53630000  0.23000000  1
  H  H405  1  0.06200000  0.51730000  0.29170000  1
  H  H406  1  0.13750000  0.54410000  0.38090000  1
  H  H407  1  0.09310000  0.78180000  0.33310000  1
  H  H408  1  0.06940000  0.58990000  0.08740000  1
  H  H409  1  0.08050000  0.55030000  0.08980000  1
  H  H410  1  0.36510000  0.60670000  0.24980000  1
  H  H411  1  0.25240000  0.56370000  0.23370000  1
  H  H412  1  0.17040000  0.42640000  0.00080000  1
  H  H413  1  0.31310000  0.46500000  0.16830000  1
  H  H414  1  0.27840000  0.50090000  0.21540000  1
  H  H415  1  0.13940000  0.40020000  0.11650000  1
  H  H416  1  0.30770000  0.33530000  0.92480000  1
  H  H417  1  0.39280000  0.54460000  0.23010000  1
  H  H418  1  0.27750000  0.42550000  0.13130000  1
  H  H419  1  0.32800000  0.36330000  0.98590000  1
  H  H420  1  0.23850000  0.41570000  0.01580000  1
  H  H421  1  0.34890000  0.33030000  0.05630000  1
  H  H422  1  0.21370000  0.28130000  0.98000000  1
  H  H423  1  0.23270000  0.31200000  0.04170000  1
  H  H424  1  0.20590000  0.38750000  0.13090000  1
  H  H425  1  0.96820000  0.34310000  0.08310000  1
  H  H426  1  0.83990000  0.81940000  0.66260000  1
  H  H427  1  0.80030000  0.83050000  0.66020000  1
  H  H428  1  0.85670000  0.11510000  0.50020000  1
  H  H429  1  0.81370000  0.00240000  0.51630000  1
  H  H430  1  0.67640000  0.92040000  0.74920000  1
  H  H431  1  0.71500000  0.06310000  0.58170000  1
  H  H432  1  0.75090000  0.02840000  0.53460000  1
  H  H433  1  0.65020000  0.88940000  0.63350000  1
  H  H434  1  0.58530000  0.05770000  0.82520000  1
  H  H435  1  0.79460000  0.14280000  0.51990000  1
  H  H436  1  0.67550000  0.02750000  0.61870000  1
  H  H437  1  0.61330000  0.07800000  0.76410000  1
  H  H438  1  0.66570000  0.98850000  0.73420000  1
  H  H439  1  0.58030000  0.09890000  0.69370000  1
  H  H440  1  0.53130000  0.96370000  0.77000000  1
  H  H441  1  0.56200000  0.98270000  0.70830000  1
  H  H442  1  0.63750000  0.95590000  0.61910000  1
  H  H443  1  0.59310000  0.71820000  0.66690000  1
  H  H444  1  0.93060000  0.08990000  0.41260000  1
  H  H445  1  0.91950000  0.05030000  0.41020000  1
  H  H446  1  0.63490000  0.10670000  0.25020000  1
  H  H447  1  0.74760000  0.06370000  0.26630000  1
  H  H448  1  0.82960000  0.92640000  0.49920000  1
  H  H449  1  0.68690000  0.96500000  0.33170000  1
  H  H450  1  0.72160000  0.00090000  0.28460000  1
  H  H451  1  0.86060000  0.90020000  0.38350000  1
  H  H452  1  0.69230000  0.83530000  0.57520000  1
  H  H453  1  0.60720000  0.04460000  0.26990000  1
  H  H454  1  0.72250000  0.92550000  0.36870000  1
  H  H455  1  0.67200000  0.86330000  0.51410000  1
  H  H456  1  0.76150000  0.91570000  0.48420000  1
  H  H457  1  0.65110000  0.83030000  0.44370000  1
  H  H458  1  0.78630000  0.78130000  0.52000000  1
  H  H459  1  0.76730000  0.81200000  0.45830000  1
  H  H460  1  0.79410000  0.88750000  0.36910000  1
  H  H461  1  0.03180000  0.84310000  0.41690000  1
  H  H462  1  0.56940000  0.91010000  0.91260000  1
  H  H463  1  0.58050000  0.94970000  0.91020000  1
  H  H464  1  0.86510000  0.89330000  0.75020000  1
  H  H465  1  0.75240000  0.93630000  0.76630000  1
  H  H466  1  0.67040000  0.07360000  0.99920000  1
  H  H467  1  0.81310000  0.03500000  0.83170000  1
  H  H468  1  0.77840000  0.99910000  0.78460000  1
  H  H469  1  0.63940000  0.09980000  0.88350000  1
  H  H470  1  0.80770000  0.16470000  0.07520000  1
  H  H471  1  0.89280000  0.95540000  0.76990000  1
  H  H472  1  0.77750000  0.07450000  0.86870000  1
  H  H473  1  0.82800000  0.13670000  0.01410000  1
  H  H474  1  0.73850000  0.08430000  0.98420000  1
  H  H475  1  0.84890000  0.16970000  0.94370000  1
  H  H476  1  0.71370000  0.21870000  0.02000000  1
  H  H477  1  0.73270000  0.18800000  0.95830000  1
  H  H478  1  0.70590000  0.11250000  0.86910000  1
  H  H479  1  0.46820000  0.15690000  0.91690000  1
  C  C480  1  0.01210000  0.65675000  0.94300000  1
  C  C481  1  0.00915000  0.66417000  0.90213000  1
  C  C482  1  0.01850000  0.68992000  0.96942000  1
  C  C483  1  0.19296000  0.83385000  0.10223000  1
  C  C484  1  0.00579000  0.61569000  0.95968000  1
  C  C485  1  0.16626000  0.86070000  0.97590000  1
  C  C486  1  0.02787000  0.73498000  0.91120000  1
  C  C487  1  0.20272000  0.82449000  0.14611000  1
  C  C488  1  0.04134000  0.77456000  0.89404000  1
  C  C489  1  0.30226000  0.94560000  0.99072000  1
  C  C490  1  0.22280000  0.83101000  0.07216000  1
  C  C491  1  0.14620000  0.88360000  0.89603000  1
  C  C492  1  0.07250000  0.79450000  0.91170000  1
  C  C493  1  0.19030000  0.89010000  0.95400000  1
  C  C494  1  0.17600000  0.85340000  0.01940000  1
  C  C495  1  0.02801000  0.72790000  0.95385000  1
  C  C496  1  0.22950000  0.90860000  0.96830000  1
  C  C497  1  0.15380000  0.84690000  0.09094000  1
  C  C498  1  0.30140000  0.92000000  0.95700000  1
  C  C499  1  0.01910000  0.70204000  0.88543000  1
  C  C500  1  0.12370000  0.84930000  0.91500000  1
  C  C501  1  0.13460000  0.84260000  0.95730000  1
  C  C502  1  0.26510000  0.90270000  0.94550000  1
  C  C503  1  0.09200000  0.82841000  0.89490000  1
  C  C504  1  0.21420000  0.83890000  0.03120000  1
  C  C505  1  0.17840000  0.90020000  0.91509000  1
  C  C506  1  0.26881000  0.95210000  0.01330000  1
  C  C507  1  0.23170000  0.93340000  0.00180000  1
  C  C508  1  0.14569000  0.85520000  0.05121000  1
  C  C509  1  0.34249000  0.96650000  0.99973000  1
  C  C510  1  0.18040000  0.88250000  0.27630000  1
  C  C511  1  0.09325000  0.26210000  0.69300000  1
  C  C512  1  0.08583000  0.25915000  0.65213000  1
  C  C513  1  0.06008000  0.26850000  0.71942000  1
  C  C514  1  0.91615000  0.44296000  0.85223000  1
  C  C515  1  0.13431000  0.25579000  0.70968000  1
  C  C516  1  0.88930000  0.41626000  0.72590000  1
  C  C517  1  0.01502000  0.27787000  0.66120000  1
  C  C518  1  0.92551000  0.45272000  0.89611000  1
  C  C519  1  0.97544000  0.29134000  0.64404000  1
  C  C520  1  0.80440000  0.55226000  0.74072000  1
  C  C521  1  0.91899000  0.47280000  0.82216000  1
  C  C522  1  0.86640000  0.39620000  0.64603000  1
  C  C523  1  0.95550000  0.32250000  0.66170000  1
  C  C524  1  0.85990000  0.44030000  0.70400000  1
  C  C525  1  0.89660000  0.42600000  0.76940000  1
  C  C526  1  0.02210000  0.27801000  0.70385000  1
  C  C527  1  0.84140000  0.47950000  0.71830000  1
  C  C528  1  0.90310000  0.40380000  0.84094000  1
  C  C529  1  0.83000000  0.55140000  0.70700000  1
  C  C530  1  0.04796000  0.26910000  0.63543000  1
  C  C531  1  0.90070000  0.37370000  0.66500000  1
  C  C532  1  0.90740000  0.38460000  0.70730000  1
  C  C533  1  0.84730000  0.51510000  0.69550000  1
  C  C534  1  0.92159000  0.34200000  0.64490000  1
  C  C535  1  0.91110000  0.46420000  0.78120000  1
  C  C536  1  0.84980000  0.42840000  0.66509000  1
  C  C537  1  0.79790000  0.51881000  0.76330000  1
  C  C538  1  0.81660000  0.48170000  0.75180000  1
  C  C539  1  0.89480000  0.39569000  0.80121000  1
  C  C540  1  0.78350000  0.59249000  0.74973000  1
  C  C541  1  0.86750000  0.43040000  0.02630000  1
  C  C542  1  0.48790000  0.34325000  0.44300000  1
  C  C543  1  0.49085000  0.33583000  0.40213000  1
  C  C544  1  0.48150000  0.31008000  0.46942000  1
  C  C545  1  0.30704000  0.16615000  0.60223000  1
  C  C546  1  0.49421000  0.38431000  0.45968000  1
  C  C547  1  0.33374000  0.13930000  0.47590000  1
  C  C548  1  0.47213000  0.26502000  0.41120000  1
  C  C549  1  0.29728000  0.17551000  0.64611000  1
  C  C550  1  0.45866000  0.22544000  0.39404000  1
  C  C551  1  0.19774000  0.05440000  0.49072000  1
  C  C552  1  0.27720000  0.16899000  0.57216000  1
  C  C553  1  0.35380000  0.11640000  0.39603000  1
  C  C554  1  0.42750000  0.20550000  0.41170000  1
  C  C555  1  0.30970000  0.10990000  0.45400000  1
  C  C556  1  0.32400000  0.14660000  0.51940000  1
  C  C557  1  0.47199000  0.27210000  0.45385000  1
  C  C558  1  0.27050000  0.09140000  0.46830000  1
  C  C559  1  0.34620000  0.15310000  0.59094000  1
  C  C560  1  0.19860000  0.08000000  0.45700000  1
  C  C561  1  0.48090000  0.29796000  0.38543000  1
  C  C562  1  0.37630000  0.15070000  0.41500000  1
  C  C563  1  0.36540000  0.15740000  0.45730000  1
  C  C564  1  0.23490000  0.09730000  0.44550000  1
  C  C565  1  0.40800000  0.17159000  0.39490000  1
  C  C566  1  0.28580000  0.16110000  0.53120000  1
  C  C567  1  0.32160000  0.09980000  0.41509000  1
  C  C568  1  0.23119000  0.04790000  0.51330000  1
  C  C569  1  0.26830000  0.06660000  0.50180000  1
  C  C570  1  0.35431000  0.14480000  0.55121000  1
  C  C571  1  0.15751000  0.03350000  0.49973000  1
  C  C572  1  0.31960000  0.11750000  0.77630000  1
  C  C573  1  0.40675000  0.73790000  0.19300000  1
  C  C574  1  0.41417000  0.74085000  0.15213000  1
  C  C575  1  0.43992000  0.73150000  0.21942000  1
  C  C576  1  0.58385000  0.55704000  0.35223000  1
  C  C577  1  0.36569000  0.74421000  0.20968000  1
  C  C578  1  0.61070000  0.58374000  0.22590000  1
  C  C579  1  0.48498000  0.72213000  0.16120000  1
  C  C580  1  0.57449000  0.54728000  0.39611000  1
  C  C581  1  0.52456000  0.70866000  0.14404000  1
  C  C582  1  0.69560000  0.44774000  0.24072000  1
  C  C583  1  0.58101000  0.52720000  0.32216000  1
  C  C584  1  0.63360000  0.60380000  0.14603000  1
  C  C585  1  0.54450000  0.67750000  0.16170000  1
  C  C586  1  0.64010000  0.55970000  0.20400000  1
  C  C587  1  0.60340000  0.57400000  0.26940000  1
  C  C588  1  0.47790000  0.72199000  0.20385000  1
  C  C589  1  0.65860000  0.52050000  0.21830000  1
  C  C590  1  0.59690000  0.59620000  0.34094000  1
  C  C591  1  0.67000000  0.44860000  0.20700000  1
  C  C592  1  0.45204000  0.73090000  0.13543000  1
  C  C593  1  0.59930000  0.62630000  0.16500000  1
  C  C594  1  0.59260000  0.61540000  0.20730000  1
  C  C595  1  0.65270000  0.48490000  0.19550000  1
  C  C596  1  0.57841000  0.65800000  0.14490000  1
  C  C597  1  0.58890000  0.53580000  0.28120000  1
  C  C598  1  0.65020000  0.57160000  0.16509000  1
  C  C599  1  0.70210000  0.48119000  0.26330000  1
  C  C600  1  0.68340000  0.51830000  0.25180000  1
  C  C601  1  0.60520000  0.60431000  0.30121000  1
  C  C602  1  0.71650000  0.40751000  0.24973000  1
  C  C603  1  0.63250000  0.56960000  0.52630000  1
  C  C604  1  0.51210000  0.84325000  0.05700000  1
  C  C605  1  0.50915000  0.83583000  0.09787000  1
  C  C606  1  0.51850000  0.81008000  0.03058000  1
  C  C607  1  0.69296000  0.66615000  0.89777000  1
  C  C608  1  0.50579000  0.88431000  0.04032000  1
  C  C609  1  0.66626000  0.63930000  0.02410000  1
  C  C610  1  0.52787000  0.76502000  0.08880000  1
  C  C611  1  0.70272000  0.67551000  0.85389000  1
  C  C612  1  0.54134000  0.72544000  0.10596000  1
  C  C613  1  0.80226000  0.55440000  0.00928000  1
  C  C614  1  0.72280000  0.66899000  0.92784000  1
  C  C615  1  0.64620000  0.61640000  0.10397000  1
  C  C616  1  0.57250000  0.70550000  0.08830000  1
  C  C617  1  0.69030000  0.60990000  0.04600000  1
  C  C618  1  0.67600000  0.64660000  0.98060000  1
  C  C619  1  0.52801000  0.77210000  0.04615000  1
  C  C620  1  0.72950000  0.59140000  0.03170000  1
  C  C621  1  0.65380000  0.65310000  0.90906000  1
  C  C622  1  0.80140000  0.58000000  0.04300000  1
  C  C623  1  0.51910000  0.79796000  0.11457000  1
  C  C624  1  0.62370000  0.65070000  0.08500000  1
  C  C625  1  0.63460000  0.65740000  0.04270000  1
  C  C626  1  0.76510000  0.59730000  0.05450000  1
  C  C627  1  0.59200000  0.67159000  0.10510000  1
  C  C628  1  0.71420000  0.66110000  0.96880000  1
  C  C629  1  0.67840000  0.59980000  0.08491000  1
  C  C630  1  0.76881000  0.54790000  0.98670000  1
  C  C631  1  0.73170000  0.56660000  0.99820000  1
  C  C632  1  0.64569000  0.64480000  0.94879000  1
  C  C633  1  0.84249000  0.53350000  0.00027000  1
  C  C634  1  0.68040000  0.61750000  0.72370000  1
  C  C635  1  0.90675000  0.76210000  0.80700000  1
  C  C636  1  0.91417000  0.75915000  0.84787000  1
  C  C637  1  0.93992000  0.76850000  0.78058000  1
  C  C638  1  0.08385000  0.94296000  0.64777000  1
  C  C639  1  0.86569000  0.75579000  0.79032000  1
  C  C640  1  0.11070000  0.91626000  0.77410000  1
  C  C641  1  0.98498000  0.77787000  0.83880000  1
  C  C642  1  0.07449000  0.95272000  0.60389000  1
  C  C643  1  0.02456000  0.79134000  0.85596000  1
  C  C644  1  0.19560000  0.05226000  0.75928000  1
  C  C645  1  0.08101000  0.97280000  0.67784000  1
  C  C646  1  0.13360000  0.89620000  0.85397000  1
  C  C647  1  0.04450000  0.82250000  0.83830000  1
  C  C648  1  0.14010000  0.94030000  0.79600000  1
  C  C649  1  0.10340000  0.92600000  0.73060000  1
  C  C650  1  0.97790000  0.77801000  0.79615000  1
  C  C651  1  0.15860000  0.97950000  0.78170000  1
  C  C652  1  0.09690000  0.90380000  0.65906000  1
  C  C653  1  0.17000000  0.05140000  0.79300000  1
  C  C654  1  0.95204000  0.76910000  0.86457000  1
  C  C655  1  0.09930000  0.87370000  0.83500000  1
  C  C656  1  0.09260000  0.88460000  0.79270000  1
  C  C657  1  0.15270000  0.01510000  0.80450000  1
  C  C658  1  0.07841000  0.84200000  0.85510000  1
  C  C659  1  0.08890000  0.96420000  0.71880000  1
  C  C660  1  0.15020000  0.92840000  0.83491000  1
  C  C661  1  0.20210000  0.01881000  0.73670000  1
  C  C662  1  0.18340000  0.98170000  0.74820000  1
  C  C663  1  0.10520000  0.89569000  0.69879000  1
  C  C664  1  0.21650000  0.09249000  0.75027000  1
  C  C665  1  0.13250000  0.93040000  0.47370000  1
  C  C666  1  0.98790000  0.15675000  0.55700000  1
  C  C667  1  0.99085000  0.16417000  0.59787000  1
  C  C668  1  0.98150000  0.18992000  0.53058000  1
  C  C669  1  0.80704000  0.33385000  0.39777000  1
  C  C670  1  0.99421000  0.11569000  0.54032000  1
  C  C671  1  0.83374000  0.36070000  0.52410000  1
  C  C672  1  0.97213000  0.23498000  0.58880000  1
  C  C673  1  0.79728000  0.32449000  0.35389000  1
  C  C674  1  0.95866000  0.27456000  0.60596000  1
  C  C675  1  0.69774000  0.44560000  0.50928000  1
  C  C676  1  0.77720000  0.33101000  0.42784000  1
  C  C677  1  0.85380000  0.38360000  0.60397000  1
  C  C678  1  0.92750000  0.29450000  0.58830000  1
  C  C679  1  0.80970000  0.39010000  0.54600000  1
  C  C680  1  0.82400000  0.35340000  0.48060000  1
  C  C681  1  0.97199000  0.22790000  0.54615000  1
  C  C682  1  0.77050000  0.40860000  0.53170000  1
  C  C683  1  0.84620000  0.34690000  0.40906000  1
  C  C684  1  0.69860000  0.42000000  0.54300000  1
  C  C685  1  0.98090000  0.20204000  0.61457000  1
  C  C686  1  0.87630000  0.34930000  0.58500000  1
  C  C687  1  0.86540000  0.34260000  0.54270000  1
  C  C688  1  0.73490000  0.40270000  0.55450000  1
  C  C689  1  0.90800000  0.32841000  0.60510000  1
  C  C690  1  0.78580000  0.33890000  0.46880000  1
  C  C691  1  0.82160000  0.40020000  0.58491000  1
  C  C692  1  0.73119000  0.45210000  0.48670000  1
  C  C693  1  0.76830000  0.43340000  0.49820000  1
  C  C694  1  0.85431000  0.35520000  0.44879000  1
  C  C695  1  0.65751000  0.46650000  0.50027000  1
  C  C696  1  0.81960000  0.38250000  0.22370000  1
  C  C697  1  0.59325000  0.23790000  0.30700000  1
  C  C698  1  0.58583000  0.24085000  0.34787000  1
  C  C699  1  0.56008000  0.23150000  0.28058000  1
  C  C700  1  0.41615000  0.05704000  0.14777000  1
  C  C701  1  0.63431000  0.24421000  0.29032000  1
  C  C702  1  0.38930000  0.08374000  0.27410000  1
  C  C703  1  0.51502000  0.22213000  0.33880000  1
  C  C704  1  0.42551000  0.04728000  0.10389000  1
  C  C705  1  0.47544000  0.20866000  0.35596000  1
  C  C706  1  0.30440000  0.94774000  0.25928000  1
  C  C707  1  0.41899000  0.02720000  0.17784000  1
  C  C708  1  0.36640000  0.10380000  0.35397000  1
  C  C709  1  0.45550000  0.17750000  0.33830000  1
  C  C710  1  0.35990000  0.05970000  0.29600000  1
  C  C711  1  0.39660000  0.07400000  0.23060000  1
  C  C712  1  0.52210000  0.22199000  0.29615000  1
  C  C713  1  0.34140000  0.02050000  0.28170000  1
  C  C714  1  0.40310000  0.09620000  0.15906000  1
  C  C715  1  0.33000000  0.94860000  0.29300000  1
  C  C716  1  0.54796000  0.23090000  0.36457000  1
  C  C717  1  0.40070000  0.12630000  0.33500000  1
  C  C718  1  0.40740000  0.11540000  0.29270000  1
  C  C719  1  0.34730000  0.98490000  0.30450000  1
  C  C720  1  0.42159000  0.15800000  0.35510000  1
  C  C721  1  0.41110000  0.03580000  0.21880000  1
  C  C722  1  0.34980000  0.07160000  0.33491000  1
  C  C723  1  0.29790000  0.98119000  0.23670000  1
  C  C724  1  0.31660000  0.01830000  0.24820000  1
  C  C725  1  0.39480000  0.10431000  0.19879000  1
  C  C726  1  0.28350000  0.90751000  0.25027000  1
  C  C727  1  0.36750000  0.06960000  0.97370000  1
  C  C728  1  0.94300000  0.01210000  0.65675000  1
  C  C729  1  0.90213000  0.00915000  0.66417000  1
  C  C730  1  0.96942000  0.01850000  0.68992000  1
  C  C731  1  0.10223000  0.19296000  0.83385000  1
  C  C732  1  0.95968000  0.00579000  0.61569000  1
  C  C733  1  0.97590000  0.16626000  0.86070000  1
  C  C734  1  0.91120000  0.02787000  0.73498000  1
  C  C735  1  0.14611000  0.20272000  0.82449000  1
  C  C736  1  0.89404000  0.04134000  0.77456000  1
  C  C737  1  0.99072000  0.30226000  0.94560000  1
  C  C738  1  0.07216000  0.22280000  0.83101000  1
  C  C739  1  0.89603000  0.14620000  0.88360000  1
  C  C740  1  0.91170000  0.07250000  0.79450000  1
  C  C741  1  0.95400000  0.19030000  0.89010000  1
  C  C742  1  0.01940000  0.17600000  0.85340000  1
  C  C743  1  0.95385000  0.02801000  0.72790000  1
  C  C744  1  0.96830000  0.22950000  0.90860000  1
  C  C745  1  0.09094000  0.15380000  0.84690000  1
  C  C746  1  0.95700000  0.30140000  0.92000000  1
  C  C747  1  0.88543000  0.01910000  0.70204000  1
  C  C748  1  0.91500000  0.12370000  0.84930000  1
  C  C749  1  0.95730000  0.13460000  0.84260000  1
  C  C750  1  0.94550000  0.26510000  0.90270000  1
  C  C751  1  0.89490000  0.09200000  0.82841000  1
  C  C752  1  0.03120000  0.21420000  0.83890000  1
  C  C753  1  0.91509000  0.17840000  0.90020000  1
  C  C754  1  0.01330000  0.26881000  0.95210000  1
  C  C755  1  0.00180000  0.23170000  0.93340000  1
  C  C756  1  0.05121000  0.14569000  0.85520000  1
  C  C757  1  0.99973000  0.34249000  0.96650000  1
  C  C758  1  0.27630000  0.18040000  0.88250000  1
  C  C759  1  0.73790000  0.19300000  0.40675000  1
  C  C760  1  0.74085000  0.15213000  0.41417000  1
  C  C761  1  0.73150000  0.21942000  0.43992000  1
  C  C762  1  0.55704000  0.35223000  0.58385000  1
  C  C763  1  0.74421000  0.20968000  0.36569000  1
  C  C764  1  0.58374000  0.22590000  0.61070000  1
  C  C765  1  0.72213000  0.16120000  0.48498000  1
  C  C766  1  0.54728000  0.39611000  0.57449000  1
  C  C767  1  0.70866000  0.14404000  0.52456000  1
  C  C768  1  0.44774000  0.24072000  0.69560000  1
  C  C769  1  0.52720000  0.32216000  0.58101000  1
  C  C770  1  0.60380000  0.14603000  0.63360000  1
  C  C771  1  0.67750000  0.16170000  0.54450000  1
  C  C772  1  0.55970000  0.20400000  0.64010000  1
  C  C773  1  0.57400000  0.26940000  0.60340000  1
  C  C774  1  0.72199000  0.20385000  0.47790000  1
  C  C775  1  0.52050000  0.21830000  0.65860000  1
  C  C776  1  0.59620000  0.34094000  0.59690000  1
  C  C777  1  0.44860000  0.20700000  0.67000000  1
  C  C778  1  0.73090000  0.13543000  0.45204000  1
  C  C779  1  0.62630000  0.16500000  0.59930000  1
  C  C780  1  0.61540000  0.20730000  0.59260000  1
  C  C781  1  0.48490000  0.19550000  0.65270000  1
  C  C782  1  0.65800000  0.14490000  0.57841000  1
  C  C783  1  0.53580000  0.28120000  0.58890000  1
  C  C784  1  0.57160000  0.16509000  0.65020000  1
  C  C785  1  0.48119000  0.26330000  0.70210000  1
  C  C786  1  0.51830000  0.25180000  0.68340000  1
  C  C787  1  0.60431000  0.30121000  0.60520000  1
  C  C788  1  0.40751000  0.24973000  0.71650000  1
  C  C789  1  0.56960000  0.52630000  0.63250000  1
  C  C790  1  0.55700000  0.98790000  0.15675000  1
  C  C791  1  0.59787000  0.99085000  0.16417000  1
  C  C792  1  0.53058000  0.98150000  0.18992000  1
  C  C793  1  0.39777000  0.80704000  0.33385000  1
  C  C794  1  0.54032000  0.99421000  0.11569000  1
  C  C795  1  0.52410000  0.83374000  0.36070000  1
  C  C796  1  0.58880000  0.97213000  0.23498000  1
  C  C797  1  0.35389000  0.79728000  0.32449000  1
  C  C798  1  0.60596000  0.95866000  0.27456000  1
  C  C799  1  0.50928000  0.69774000  0.44560000  1
  C  C800  1  0.42784000  0.77720000  0.33101000  1
  C  C801  1  0.60397000  0.85380000  0.38360000  1
  C  C802  1  0.58830000  0.92750000  0.29450000  1
  C  C803  1  0.54600000  0.80970000  0.39010000  1
  C  C804  1  0.48060000  0.82400000  0.35340000  1
  C  C805  1  0.54615000  0.97199000  0.22790000  1
  C  C806  1  0.53170000  0.77050000  0.40860000  1
  C  C807  1  0.40906000  0.84620000  0.34690000  1
  C  C808  1  0.54300000  0.69860000  0.42000000  1
  C  C809  1  0.61457000  0.98090000  0.20204000  1
  C  C810  1  0.58500000  0.87630000  0.34930000  1
  C  C811  1  0.54270000  0.86540000  0.34260000  1
  C  C812  1  0.55450000  0.73490000  0.40270000  1
  C  C813  1  0.60510000  0.90800000  0.32841000  1
  C  C814  1  0.46880000  0.78580000  0.33890000  1
  C  C815  1  0.58491000  0.82160000  0.40020000  1
  C  C816  1  0.48670000  0.73119000  0.45210000  1
  C  C817  1  0.49820000  0.76830000  0.43340000  1
  C  C818  1  0.44879000  0.85431000  0.35520000  1
  C  C819  1  0.50027000  0.65751000  0.46650000  1
  C  C820  1  0.22370000  0.81960000  0.38250000  1
  C  C821  1  0.76210000  0.80700000  0.90675000  1
  C  C822  1  0.75915000  0.84787000  0.91417000  1
  C  C823  1  0.76850000  0.78058000  0.93992000  1
  C  C824  1  0.94296000  0.64777000  0.08385000  1
  C  C825  1  0.75579000  0.79032000  0.86569000  1
  C  C826  1  0.91626000  0.77410000  0.11070000  1
  C  C827  1  0.77787000  0.83880000  0.98498000  1
  C  C828  1  0.95272000  0.60389000  0.07449000  1
  C  C829  1  0.79134000  0.85596000  0.02456000  1
  C  C830  1  0.05226000  0.75928000  0.19560000  1
  C  C831  1  0.97280000  0.67784000  0.08101000  1
  C  C832  1  0.89620000  0.85397000  0.13360000  1
  C  C833  1  0.82250000  0.83830000  0.04450000  1
  C  C834  1  0.94030000  0.79600000  0.14010000  1
  C  C835  1  0.92600000  0.73060000  0.10340000  1
  C  C836  1  0.77801000  0.79615000  0.97790000  1
  C  C837  1  0.97950000  0.78170000  0.15860000  1
  C  C838  1  0.90380000  0.65906000  0.09690000  1
  C  C839  1  0.05140000  0.79300000  0.17000000  1
  C  C840  1  0.76910000  0.86457000  0.95204000  1
  C  C841  1  0.87370000  0.83500000  0.09930000  1
  C  C842  1  0.88460000  0.79270000  0.09260000  1
  C  C843  1  0.01510000  0.80450000  0.15270000  1
  C  C844  1  0.84200000  0.85510000  0.07841000  1
  C  C845  1  0.96420000  0.71880000  0.08890000  1
  C  C846  1  0.92840000  0.83491000  0.15020000  1
  C  C847  1  0.01881000  0.73670000  0.20210000  1
  C  C848  1  0.98170000  0.74820000  0.18340000  1
  C  C849  1  0.89569000  0.69879000  0.10520000  1
  C  C850  1  0.09249000  0.75027000  0.21650000  1
  C  C851  1  0.93040000  0.47370000  0.13250000  1
  C  C852  1  0.44300000  0.48790000  0.34325000  1
  C  C853  1  0.40213000  0.49085000  0.33583000  1
  C  C854  1  0.46942000  0.48150000  0.31008000  1
  C  C855  1  0.60223000  0.30704000  0.16615000  1
  C  C856  1  0.45968000  0.49421000  0.38431000  1
  C  C857  1  0.47590000  0.33374000  0.13930000  1
  C  C858  1  0.41120000  0.47213000  0.26502000  1
  C  C859  1  0.64611000  0.29728000  0.17551000  1
  C  C860  1  0.39404000  0.45866000  0.22544000  1
  C  C861  1  0.49072000  0.19774000  0.05440000  1
  C  C862  1  0.57216000  0.27720000  0.16899000  1
  C  C863  1  0.39603000  0.35380000  0.11640000  1
  C  C864  1  0.41170000  0.42750000  0.20550000  1
  C  C865  1  0.45400000  0.30970000  0.10990000  1
  C  C866  1  0.51940000  0.32400000  0.14660000  1
  C  C867  1  0.45385000  0.47199000  0.27210000  1
  C  C868  1  0.46830000  0.27050000  0.09140000  1
  C  C869  1  0.59094000  0.34620000  0.15310000  1
  C  C870  1  0.45700000  0.19860000  0.08000000  1
  C  C871  1  0.38543000  0.48090000  0.29796000  1
  C  C872  1  0.41500000  0.37630000  0.15070000  1
  C  C873  1  0.45730000  0.36540000  0.15740000  1
  C  C874  1  0.44550000  0.23490000  0.09730000  1
  C  C875  1  0.39490000  0.40800000  0.17159000  1
  C  C876  1  0.53120000  0.28580000  0.16110000  1
  C  C877  1  0.41509000  0.32160000  0.09980000  1
  C  C878  1  0.51330000  0.23119000  0.04790000  1
  C  C879  1  0.50180000  0.26830000  0.06660000  1
  C  C880  1  0.55121000  0.35431000  0.14480000  1
  C  C881  1  0.49973000  0.15751000  0.03350000  1
  C  C882  1  0.77630000  0.31960000  0.11750000  1
  C  C883  1  0.26210000  0.69300000  0.09325000  1
  C  C884  1  0.25915000  0.65213000  0.08583000  1
  C  C885  1  0.26850000  0.71942000  0.06008000  1
  C  C886  1  0.44296000  0.85223000  0.91615000  1
  C  C887  1  0.25579000  0.70968000  0.13431000  1
  C  C888  1  0.41626000  0.72590000  0.88930000  1
  C  C889  1  0.27787000  0.66120000  0.01502000  1
  C  C890  1  0.45272000  0.89611000  0.92551000  1
  C  C891  1  0.29134000  0.64404000  0.97544000  1
  C  C892  1  0.55226000  0.74072000  0.80440000  1
  C  C893  1  0.47280000  0.82216000  0.91899000  1
  C  C894  1  0.39620000  0.64603000  0.86640000  1
  C  C895  1  0.32250000  0.66170000  0.95550000  1
  C  C896  1  0.44030000  0.70400000  0.85990000  1
  C  C897  1  0.42600000  0.76940000  0.89660000  1
  C  C898  1  0.27801000  0.70385000  0.02210000  1
  C  C899  1  0.47950000  0.71830000  0.84140000  1
  C  C900  1  0.40380000  0.84094000  0.90310000  1
  C  C901  1  0.55140000  0.70700000  0.83000000  1
  C  C902  1  0.26910000  0.63543000  0.04796000  1
  C  C903  1  0.37370000  0.66500000  0.90070000  1
  C  C904  1  0.38460000  0.70730000  0.90740000  1
  C  C905  1  0.51510000  0.69550000  0.84730000  1
  C  C906  1  0.34200000  0.64490000  0.92159000  1
  C  C907  1  0.46420000  0.78120000  0.91110000  1
  C  C908  1  0.42840000  0.66509000  0.84980000  1
  C  C909  1  0.51881000  0.76330000  0.79790000  1
  C  C910  1  0.48170000  0.75180000  0.81660000  1
  C  C911  1  0.39569000  0.80121000  0.89480000  1
  C  C912  1  0.59249000  0.74973000  0.78350000  1
  C  C913  1  0.43040000  0.02630000  0.86750000  1
  C  C914  1  0.05700000  0.51210000  0.84325000  1
  C  C915  1  0.09787000  0.50915000  0.83583000  1
  C  C916  1  0.03058000  0.51850000  0.81008000  1
  C  C917  1  0.89777000  0.69296000  0.66615000  1
  C  C918  1  0.04032000  0.50579000  0.88431000  1
  C  C919  1  0.02410000  0.66626000  0.63930000  1
  C  C920  1  0.08880000  0.52787000  0.76502000  1
  C  C921  1  0.85389000  0.70272000  0.67551000  1
  C  C922  1  0.10596000  0.54134000  0.72544000  1
  C  C923  1  0.00928000  0.80226000  0.55440000  1
  C  C924  1  0.92784000  0.72280000  0.66899000  1
  C  C925  1  0.10397000  0.64620000  0.61640000  1
  C  C926  1  0.08830000  0.57250000  0.70550000  1
  C  C927  1  0.04600000  0.69030000  0.60990000  1
  C  C928  1  0.98060000  0.67600000  0.64660000  1
  C  C929  1  0.04615000  0.52801000  0.77210000  1
  C  C930  1  0.03170000  0.72950000  0.59140000  1
  C  C931  1  0.90906000  0.65380000  0.65310000  1
  C  C932  1  0.04300000  0.80140000  0.58000000  1
  C  C933  1  0.11457000  0.51910000  0.79796000  1
  C  C934  1  0.08500000  0.62370000  0.65070000  1
  C  C935  1  0.04270000  0.63460000  0.65740000  1
  C  C936  1  0.05450000  0.76510000  0.59730000  1
  C  C937  1  0.10510000  0.59200000  0.67159000  1
  C  C938  1  0.96880000  0.71420000  0.66110000  1
  C  C939  1  0.08491000  0.67840000  0.59980000  1
  C  C940  1  0.98670000  0.76881000  0.54790000  1
  C  C941  1  0.99820000  0.73170000  0.56660000  1
  C  C942  1  0.94879000  0.64569000  0.64480000  1
  C  C943  1  0.00027000  0.84249000  0.53350000  1
  C  C944  1  0.72370000  0.68040000  0.61750000  1
  C  C945  1  0.23790000  0.30700000  0.59325000  1
  C  C946  1  0.24085000  0.34787000  0.58583000  1
  C  C947  1  0.23150000  0.28058000  0.56008000  1
  C  C948  1  0.05704000  0.14777000  0.41615000  1
  C  C949  1  0.24421000  0.29032000  0.63431000  1
  C  C950  1  0.08374000  0.27410000  0.38930000  1
  C  C951  1  0.22213000  0.33880000  0.51502000  1
  C  C952  1  0.04728000  0.10389000  0.42551000  1
  C  C953  1  0.20866000  0.35596000  0.47544000  1
  C  C954  1  0.94774000  0.25928000  0.30440000  1
  C  C955  1  0.02720000  0.17784000  0.41899000  1
  C  C956  1  0.10380000  0.35397000  0.36640000  1
  C  C957  1  0.17750000  0.33830000  0.45550000  1
  C  C958  1  0.05970000  0.29600000  0.35990000  1
  C  C959  1  0.07400000  0.23060000  0.39660000  1
  C  C960  1  0.22199000  0.29615000  0.52210000  1
  C  C961  1  0.02050000  0.28170000  0.34140000  1
  C  C962  1  0.09620000  0.15906000  0.40310000  1
  C  C963  1  0.94860000  0.29300000  0.33000000  1
  C  C964  1  0.23090000  0.36457000  0.54796000  1
  C  C965  1  0.12630000  0.33500000  0.40070000  1
  C  C966  1  0.11540000  0.29270000  0.40740000  1
  C  C967  1  0.98490000  0.30450000  0.34730000  1
  C  C968  1  0.15800000  0.35510000  0.42159000  1
  C  C969  1  0.03580000  0.21880000  0.41110000  1
  C  C970  1  0.07160000  0.33491000  0.34980000  1
  C  C971  1  0.98119000  0.23670000  0.29790000  1
  C  C972  1  0.01830000  0.24820000  0.31660000  1
  C  C973  1  0.10431000  0.19879000  0.39480000  1
  C  C974  1  0.90751000  0.25027000  0.28350000  1
  C  C975  1  0.06960000  0.97370000  0.36750000  1
  C  C976  1  0.65675000  0.94300000  0.01210000  1
  C  C977  1  0.66417000  0.90213000  0.00915000  1
  C  C978  1  0.68992000  0.96942000  0.01850000  1
  C  C979  1  0.83385000  0.10223000  0.19296000  1
  C  C980  1  0.61569000  0.95968000  0.00579000  1
  C  C981  1  0.86070000  0.97590000  0.16626000  1
  C  C982  1  0.73498000  0.91120000  0.02787000  1
  C  C983  1  0.82449000  0.14611000  0.20272000  1
  C  C984  1  0.77456000  0.89404000  0.04134000  1
  C  C985  1  0.94560000  0.99072000  0.30226000  1
  C  C986  1  0.83101000  0.07216000  0.22280000  1
  C  C987  1  0.88360000  0.89603000  0.14620000  1
  C  C988  1  0.79450000  0.91170000  0.07250000  1
  C  C989  1  0.89010000  0.95400000  0.19030000  1
  C  C990  1  0.85340000  0.01940000  0.17600000  1
  C  C991  1  0.72790000  0.95385000  0.02801000  1
  C  C992  1  0.90860000  0.96830000  0.22950000  1
  C  C993  1  0.84690000  0.09094000  0.15380000  1
  C  C994  1  0.92000000  0.95700000  0.30140000  1
  C  C995  1  0.70204000  0.88543000  0.01910000  1
  C  C996  1  0.84930000  0.91500000  0.12370000  1
  C  C997  1  0.84260000  0.95730000  0.13460000  1
  C  C998  1  0.90270000  0.94550000  0.26510000  1
  C  C999  1  0.82841000  0.89490000  0.09200000  1
  C  C1000  1  0.83890000  0.03120000  0.21420000  1
  C  C1001  1  0.90020000  0.91509000  0.17840000  1
  C  C1002  1  0.95210000  0.01330000  0.26881000  1
  C  C1003  1  0.93340000  0.00180000  0.23170000  1
  C  C1004  1  0.85520000  0.05121000  0.14569000  1
  C  C1005  1  0.96650000  0.99973000  0.34249000  1
  C  C1006  1  0.88250000  0.27630000  0.18040000  1
  C  C1007  1  0.15675000  0.55700000  0.98790000  1
  C  C1008  1  0.16417000  0.59787000  0.99085000  1
  C  C1009  1  0.18992000  0.53058000  0.98150000  1
  C  C1010  1  0.33385000  0.39777000  0.80704000  1
  C  C1011  1  0.11569000  0.54032000  0.99421000  1
  C  C1012  1  0.36070000  0.52410000  0.83374000  1
  C  C1013  1  0.23498000  0.58880000  0.97213000  1
  C  C1014  1  0.32449000  0.35389000  0.79728000  1
  C  C1015  1  0.27456000  0.60596000  0.95866000  1
  C  C1016  1  0.44560000  0.50928000  0.69774000  1
  C  C1017  1  0.33101000  0.42784000  0.77720000  1
  C  C1018  1  0.38360000  0.60397000  0.85380000  1
  C  C1019  1  0.29450000  0.58830000  0.92750000  1
  C  C1020  1  0.39010000  0.54600000  0.80970000  1
  C  C1021  1  0.35340000  0.48060000  0.82400000  1
  C  C1022  1  0.22790000  0.54615000  0.97199000  1
  C  C1023  1  0.40860000  0.53170000  0.77050000  1
  C  C1024  1  0.34690000  0.40906000  0.84620000  1
  C  C1025  1  0.42000000  0.54300000  0.69860000  1
  C  C1026  1  0.20204000  0.61457000  0.98090000  1
  C  C1027  1  0.34930000  0.58500000  0.87630000  1
  C  C1028  1  0.34260000  0.54270000  0.86540000  1
  C  C1029  1  0.40270000  0.55450000  0.73490000  1
  C  C1030  1  0.32841000  0.60510000  0.90800000  1
  C  C1031  1  0.33890000  0.46880000  0.78580000  1
  C  C1032  1  0.40020000  0.58491000  0.82160000  1
  C  C1033  1  0.45210000  0.48670000  0.73119000  1
  C  C1034  1  0.43340000  0.49820000  0.76830000  1
  C  C1035  1  0.35520000  0.44879000  0.85431000  1
  C  C1036  1  0.46650000  0.50027000  0.65751000  1
  C  C1037  1  0.38250000  0.22370000  0.81960000  1
  C  C1038  1  0.19300000  0.40675000  0.73790000  1
  C  C1039  1  0.15213000  0.41417000  0.74085000  1
  C  C1040  1  0.21942000  0.43992000  0.73150000  1
  C  C1041  1  0.35223000  0.58385000  0.55704000  1
  C  C1042  1  0.20968000  0.36569000  0.74421000  1
  C  C1043  1  0.22590000  0.61070000  0.58374000  1
  C  C1044  1  0.16120000  0.48498000  0.72213000  1
  C  C1045  1  0.39611000  0.57449000  0.54728000  1
  C  C1046  1  0.14404000  0.52456000  0.70866000  1
  C  C1047  1  0.24072000  0.69560000  0.44774000  1
  C  C1048  1  0.32216000  0.58101000  0.52720000  1
  C  C1049  1  0.14603000  0.63360000  0.60380000  1
  C  C1050  1  0.16170000  0.54450000  0.67750000  1
  C  C1051  1  0.20400000  0.64010000  0.55970000  1
  C  C1052  1  0.26940000  0.60340000  0.57400000  1
  C  C1053  1  0.20385000  0.47790000  0.72199000  1
  C  C1054  1  0.21830000  0.65860000  0.52050000  1
  C  C1055  1  0.34094000  0.59690000  0.59620000  1
  C  C1056  1  0.20700000  0.67000000  0.44860000  1
  C  C1057  1  0.13543000  0.45204000  0.73090000  1
  C  C1058  1  0.16500000  0.59930000  0.62630000  1
  C  C1059  1  0.20730000  0.59260000  0.61540000  1
  C  C1060  1  0.19550000  0.65270000  0.48490000  1
  C  C1061  1  0.14490000  0.57841000  0.65800000  1
  C  C1062  1  0.28120000  0.58890000  0.53580000  1
  C  C1063  1  0.16509000  0.65020000  0.57160000  1
  C  C1064  1  0.26330000  0.70210000  0.48119000  1
  C  C1065  1  0.25180000  0.68340000  0.51830000  1
  C  C1066  1  0.30121000  0.60520000  0.60431000  1
  C  C1067  1  0.24973000  0.71650000  0.40751000  1
  C  C1068  1  0.52630000  0.63250000  0.56960000  1
  C  C1069  1  0.34325000  0.44300000  0.48790000  1
  C  C1070  1  0.33583000  0.40213000  0.49085000  1
  C  C1071  1  0.31008000  0.46942000  0.48150000  1
  C  C1072  1  0.16615000  0.60223000  0.30704000  1
  C  C1073  1  0.38431000  0.45968000  0.49421000  1
  C  C1074  1  0.13930000  0.47590000  0.33374000  1
  C  C1075  1  0.26502000  0.41120000  0.47213000  1
  C  C1076  1  0.17551000  0.64611000  0.29728000  1
  C  C1077  1  0.22544000  0.39404000  0.45866000  1
  C  C1078  1  0.05440000  0.49072000  0.19774000  1
  C  C1079  1  0.16899000  0.57216000  0.27720000  1
  C  C1080  1  0.11640000  0.39603000  0.35380000  1
  C  C1081  1  0.20550000  0.41170000  0.42750000  1
  C  C1082  1  0.10990000  0.45400000  0.30970000  1
  C  C1083  1  0.14660000  0.51940000  0.32400000  1
  C  C1084  1  0.27210000  0.45385000  0.47199000  1
  C  C1085  1  0.09140000  0.46830000  0.27050000  1
  C  C1086  1  0.15310000  0.59094000  0.34620000  1
  C  C1087  1  0.08000000  0.45700000  0.19860000  1
  C  C1088  1  0.29796000  0.38543000  0.48090000  1
  C  C1089  1  0.15070000  0.41500000  0.37630000  1
  C  C1090  1  0.15740000  0.45730000  0.36540000  1
  C  C1091  1  0.09730000  0.44550000  0.23490000  1
  C  C1092  1  0.17159000  0.39490000  0.40800000  1
  C  C1093  1  0.16110000  0.53120000  0.28580000  1
  C  C1094  1  0.09980000  0.41509000  0.32160000  1
  C  C1095  1  0.04790000  0.51330000  0.23119000  1
  C  C1096  1  0.06660000  0.50180000  0.26830000  1
  C  C1097  1  0.14480000  0.55121000  0.35431000  1
  C  C1098  1  0.03350000  0.49973000  0.15751000  1
  C  C1099  1  0.11750000  0.77630000  0.31960000  1
  C  C1100  1  0.30700000  0.59325000  0.23790000  1
  C  C1101  1  0.34787000  0.58583000  0.24085000  1
  C  C1102  1  0.28058000  0.56008000  0.23150000  1
  C  C1103  1  0.14777000  0.41615000  0.05704000  1
  C  C1104  1  0.29032000  0.63431000  0.24421000  1
  C  C1105  1  0.27410000  0.38930000  0.08374000  1
  C  C1106  1  0.33880000  0.51502000  0.22213000  1
  C  C1107  1  0.10389000  0.42551000  0.04728000  1
  C  C1108  1  0.35596000  0.47544000  0.20866000  1
  C  C1109  1  0.25928000  0.30440000  0.94774000  1
  C  C1110  1  0.17784000  0.41899000  0.02720000  1
  C  C1111  1  0.35397000  0.36640000  0.10380000  1
  C  C1112  1  0.33830000  0.45550000  0.17750000  1
  C  C1113  1  0.29600000  0.35990000  0.05970000  1
  C  C1114  1  0.23060000  0.39660000  0.07400000  1
  C  C1115  1  0.29615000  0.52210000  0.22199000  1
  C  C1116  1  0.28170000  0.34140000  0.02050000  1
  C  C1117  1  0.15906000  0.40310000  0.09620000  1
  C  C1118  1  0.29300000  0.33000000  0.94860000  1
  C  C1119  1  0.36457000  0.54796000  0.23090000  1
  C  C1120  1  0.33500000  0.40070000  0.12630000  1
  C  C1121  1  0.29270000  0.40740000  0.11540000  1
  C  C1122  1  0.30450000  0.34730000  0.98490000  1
  C  C1123  1  0.35510000  0.42159000  0.15800000  1
  C  C1124  1  0.21880000  0.41110000  0.03580000  1
  C  C1125  1  0.33491000  0.34980000  0.07160000  1
  C  C1126  1  0.23670000  0.29790000  0.98119000  1
  C  C1127  1  0.24820000  0.31660000  0.01830000  1
  C  C1128  1  0.19879000  0.39480000  0.10431000  1
  C  C1129  1  0.25027000  0.28350000  0.90751000  1
  C  C1130  1  0.97370000  0.36750000  0.06960000  1
  C  C1131  1  0.84325000  0.05700000  0.51210000  1
  C  C1132  1  0.83583000  0.09787000  0.50915000  1
  C  C1133  1  0.81008000  0.03058000  0.51850000  1
  C  C1134  1  0.66615000  0.89777000  0.69296000  1
  C  C1135  1  0.88431000  0.04032000  0.50579000  1
  C  C1136  1  0.63930000  0.02410000  0.66626000  1
  C  C1137  1  0.76502000  0.08880000  0.52787000  1
  C  C1138  1  0.67551000  0.85389000  0.70272000  1
  C  C1139  1  0.72544000  0.10596000  0.54134000  1
  C  C1140  1  0.55440000  0.00928000  0.80226000  1
  C  C1141  1  0.66899000  0.92784000  0.72280000  1
  C  C1142  1  0.61640000  0.10397000  0.64620000  1
  C  C1143  1  0.70550000  0.08830000  0.57250000  1
  C  C1144  1  0.60990000  0.04600000  0.69030000  1
  C  C1145  1  0.64660000  0.98060000  0.67600000  1
  C  C1146  1  0.77210000  0.04615000  0.52801000  1
  C  C1147  1  0.59140000  0.03170000  0.72950000  1
  C  C1148  1  0.65310000  0.90906000  0.65380000  1
  C  C1149  1  0.58000000  0.04300000  0.80140000  1
  C  C1150  1  0.79796000  0.11457000  0.51910000  1
  C  C1151  1  0.65070000  0.08500000  0.62370000  1
  C  C1152  1  0.65740000  0.04270000  0.63460000  1
  C  C1153  1  0.59730000  0.05450000  0.76510000  1
  C  C1154  1  0.67159000  0.10510000  0.59200000  1
  C  C1155  1  0.66110000  0.96880000  0.71420000  1
  C  C1156  1  0.59980000  0.08491000  0.67840000  1
  C  C1157  1  0.54790000  0.98670000  0.76881000  1
  C  C1158  1  0.56660000  0.99820000  0.73170000  1
  C  C1159  1  0.64480000  0.94879000  0.64569000  1
  C  C1160  1  0.53350000  0.00027000  0.84249000  1
  C  C1161  1  0.61750000  0.72370000  0.68040000  1
  C  C1162  1  0.69300000  0.09325000  0.26210000  1
  C  C1163  1  0.65213000  0.08583000  0.25915000  1
  C  C1164  1  0.71942000  0.06008000  0.26850000  1
  C  C1165  1  0.85223000  0.91615000  0.44296000  1
  C  C1166  1  0.70968000  0.13431000  0.25579000  1
  C  C1167  1  0.72590000  0.88930000  0.41626000  1
  C  C1168  1  0.66120000  0.01502000  0.27787000  1
  C  C1169  1  0.89611000  0.92551000  0.45272000  1
  C  C1170  1  0.64404000  0.97544000  0.29134000  1
  C  C1171  1  0.74072000  0.80440000  0.55226000  1
  C  C1172  1  0.82216000  0.91899000  0.47280000  1
  C  C1173  1  0.64603000  0.86640000  0.39620000  1
  C  C1174  1  0.66170000  0.95550000  0.32250000  1
  C  C1175  1  0.70400000  0.85990000  0.44030000  1
  C  C1176  1  0.76940000  0.89660000  0.42600000  1
  C  C1177  1  0.70385000  0.02210000  0.27801000  1
  C  C1178  1  0.71830000  0.84140000  0.47950000  1
  C  C1179  1  0.84094000  0.90310000  0.40380000  1
  C  C1180  1  0.70700000  0.83000000  0.55140000  1
  C  C1181  1  0.63543000  0.04796000  0.26910000  1
  C  C1182  1  0.66500000  0.90070000  0.37370000  1
  C  C1183  1  0.70730000  0.90740000  0.38460000  1
  C  C1184  1  0.69550000  0.84730000  0.51510000  1
  C  C1185  1  0.64490000  0.92159000  0.34200000  1
  C  C1186  1  0.78120000  0.91110000  0.46420000  1
  C  C1187  1  0.66509000  0.84980000  0.42840000  1
  C  C1188  1  0.76330000  0.79790000  0.51881000  1
  C  C1189  1  0.75180000  0.81660000  0.48170000  1
  C  C1190  1  0.80121000  0.89480000  0.39569000  1
  C  C1191  1  0.74973000  0.78350000  0.59249000  1
  C  C1192  1  0.02630000  0.86750000  0.43040000  1
  C  C1193  1  0.80700000  0.90675000  0.76210000  1
  C  C1194  1  0.84787000  0.91417000  0.75915000  1
  C  C1195  1  0.78058000  0.93992000  0.76850000  1
  C  C1196  1  0.64777000  0.08385000  0.94296000  1
  C  C1197  1  0.79032000  0.86569000  0.75579000  1
  C  C1198  1  0.77410000  0.11070000  0.91626000  1
  C  C1199  1  0.83880000  0.98498000  0.77787000  1
  C  C1200  1  0.60389000  0.07449000  0.95272000  1
  C  C1201  1  0.85596000  0.02456000  0.79134000  1
  C  C1202  1  0.75928000  0.19560000  0.05226000  1
  C  C1203  1  0.67784000  0.08101000  0.97280000  1
  C  C1204  1  0.85397000  0.13360000  0.89620000  1
  C  C1205  1  0.83830000  0.04450000  0.82250000  1
  C  C1206  1  0.79600000  0.14010000  0.94030000  1
  C  C1207  1  0.73060000  0.10340000  0.92600000  1
  C  C1208  1  0.79615000  0.97790000  0.77801000  1
  C  C1209  1  0.78170000  0.15860000  0.97950000  1
  C  C1210  1  0.65906000  0.09690000  0.90380000  1
  C  C1211  1  0.79300000  0.17000000  0.05140000  1
  C  C1212  1  0.86457000  0.95204000  0.76910000  1
  C  C1213  1  0.83500000  0.09930000  0.87370000  1
  C  C1214  1  0.79270000  0.09260000  0.88460000  1
  C  C1215  1  0.80450000  0.15270000  0.01510000  1
  C  C1216  1  0.85510000  0.07841000  0.84200000  1
  C  C1217  1  0.71880000  0.08890000  0.96420000  1
  C  C1218  1  0.83491000  0.15020000  0.92840000  1
  C  C1219  1  0.73670000  0.20210000  0.01881000  1
  C  C1220  1  0.74820000  0.18340000  0.98170000  1
  C  C1221  1  0.69879000  0.10520000  0.89569000  1
  C  C1222  1  0.75027000  0.21650000  0.09249000  1
  C  C1223  1  0.47370000  0.13250000  0.93040000  1
  O  O1224  1  0.17104000  0.73148000  0.26272000  1
  O  O1225  1  0.24013000  0.81687000  0.15145000  1
  O  O1226  1  0.98587000  0.59048000  0.93825000  1
  O  O1227  1  0.17575000  0.82389000  0.17275000  1
  O  O1228  1  0.02126000  0.60803000  0.99317000  1
  O  O1229  1  0.16122000  0.68420000  0.19043000  1
  O  O1230  1  0.21743000  0.75773000  0.20794000  1
  O  O1231  1  0.37311000  0.95754000  0.97731000  1
  O  O1232  1  0.21520000  0.87635000  0.29833000  1
  O  O1233  1  0.16282000  0.85955000  0.24853000  1
  O  O1234  1  0.34209000  0.99380000  0.02964000  1
  O  O1235  1  0.28287000  0.71713000  0.21713000  1
  O  O1236  1  0.20754000  0.79246000  0.29246000  1
  O  O1237  1  0.01852000  0.42104000  0.01272000  1
  O  O1238  1  0.93313000  0.49013000  0.90145000  1
  O  O1239  1  0.15952000  0.23587000  0.68825000  1
  O  O1240  1  0.92611000  0.42575000  0.92275000  1
  O  O1241  1  0.14197000  0.27126000  0.74317000  1
  O  O1242  1  0.06580000  0.41122000  0.94043000  1
  O  O1243  1  0.99227000  0.46743000  0.95794000  1
  O  O1244  1  0.79246000  0.62311000  0.72731000  1
  O  O1245  1  0.87365000  0.46520000  0.04833000  1
  O  O1246  1  0.89045000  0.41282000  0.99853000  1
  O  O1247  1  0.75620000  0.59209000  0.77964000  1
  O  O1248  1  0.03287000  0.53287000  0.96713000  1
  O  O1249  1  0.95754000  0.45754000  0.04246000  1
  O  O1250  1  0.32896000  0.26852000  0.76272000  1
  O  O1251  1  0.25987000  0.18313000  0.65145000  1
  O  O1252  1  0.51413000  0.40952000  0.43825000  1
  O  O1253  1  0.32425000  0.17611000  0.67275000  1
  O  O1254  1  0.47874000  0.39197000  0.49317000  1
  O  O1255  1  0.33878000  0.31580000  0.69043000  1
  O  O1256  1  0.28257000  0.24227000  0.70794000  1
  O  O1257  1  0.12689000  0.04246000  0.47731000  1
  O  O1258  1  0.28480000  0.12365000  0.79833000  1
  O  O1259  1  0.33718000  0.14045000  0.74853000  1
  O  O1260  1  0.15791000  0.00620000  0.52964000  1
  O  O1261  1  0.21713000  0.28287000  0.71713000  1
  O  O1262  1  0.29246000  0.20754000  0.79246000  1
  O  O1263  1  0.48148000  0.57896000  0.51272000  1
  O  O1264  1  0.56687000  0.50987000  0.40145000  1
  O  O1265  1  0.34048000  0.76413000  0.18825000  1
  O  O1266  1  0.57389000  0.57425000  0.42275000  1
  O  O1267  1  0.35803000  0.72874000  0.24317000  1
  O  O1268  1  0.43420000  0.58878000  0.44043000  1
  O  O1269  1  0.50773000  0.53257000  0.45794000  1
  O  O1270  1  0.70754000  0.37689000  0.22731000  1
  O  O1271  1  0.62635000  0.53480000  0.54833000  1
  O  O1272  1  0.60955000  0.58718000  0.49853000  1
  O  O1273  1  0.74380000  0.40791000  0.27964000  1
  O  O1274  1  0.46713000  0.46713000  0.46713000  1
  O  O1275  1  0.54246000  0.54246000  0.54246000  1
  O  O1276  1  0.67104000  0.76852000  0.73728000  1
  O  O1277  1  0.74013000  0.68313000  0.84855000  1
  O  O1278  1  0.48587000  0.90952000  0.06175000  1
  O  O1279  1  0.67575000  0.67611000  0.82725000  1
  O  O1280  1  0.52126000  0.89197000  0.00683000  1
  O  O1281  1  0.66122000  0.81580000  0.80957000  1
  O  O1282  1  0.71743000  0.74227000  0.79206000  1
  O  O1283  1  0.87311000  0.54246000  0.02269000  1
  O  O1284  1  0.71520000  0.62365000  0.70167000  1
  O  O1285  1  0.66282000  0.64045000  0.75147000  1
  O  O1286  1  0.84209000  0.50620000  0.97036000  1
  O  O1287  1  0.78287000  0.78287000  0.78287000  1
  O  O1288  1  0.70754000  0.70754000  0.70754000  1
  O  O1289  1  0.98148000  0.92104000  0.48728000  1
  O  O1290  1  0.06687000  0.99013000  0.59855000  1
  O  O1291  1  0.84048000  0.73587000  0.81175000  1
  O  O1292  1  0.07389000  0.92575000  0.57725000  1
  O  O1293  1  0.85803000  0.77126000  0.75683000  1
  O  O1294  1  0.93420000  0.91122000  0.55957000  1
  O  O1295  1  0.00773000  0.96743000  0.54206000  1
  O  O1296  1  0.20754000  0.12311000  0.77269000  1
  O  O1297  1  0.12635000  0.96520000  0.45167000  1
  O  O1298  1  0.10955000  0.91282000  0.50147000  1
  O  O1299  1  0.24380000  0.09209000  0.72036000  1
  O  O1300  1  0.96713000  0.03287000  0.53287000  1
  O  O1301  1  0.04246000  0.95754000  0.45754000  1
  O  O1302  1  0.82896000  0.23148000  0.23728000  1
  O  O1303  1  0.75987000  0.31687000  0.34855000  1
  O  O1304  1  0.01413000  0.09048000  0.56175000  1
  O  O1305  1  0.82425000  0.32389000  0.32725000  1
  O  O1306  1  0.97874000  0.10803000  0.50683000  1
  O  O1307  1  0.83878000  0.18420000  0.30957000  1
  O  O1308  1  0.78257000  0.25773000  0.29206000  1
  O  O1309  1  0.62689000  0.45754000  0.52269000  1
  O  O1310  1  0.78480000  0.37635000  0.20167000  1
  O  O1311  1  0.83718000  0.35955000  0.25147000  1
  O  O1312  1  0.65791000  0.49380000  0.47036000  1
  O  O1313  1  0.71713000  0.21713000  0.28287000  1
  O  O1314  1  0.79246000  0.29246000  0.20754000  1
  O  O1315  1  0.51852000  0.07896000  0.98728000  1
  O  O1316  1  0.43313000  0.00987000  0.09855000  1
  O  O1317  1  0.65952000  0.26413000  0.31175000  1
  O  O1318  1  0.42611000  0.07425000  0.07725000  1
  O  O1319  1  0.64197000  0.22874000  0.25683000  1
  O  O1320  1  0.56580000  0.08878000  0.05957000  1
  O  O1321  1  0.49227000  0.03257000  0.04206000  1
  O  O1322  1  0.29246000  0.87689000  0.27269000  1
  O  O1323  1  0.37365000  0.03480000  0.95167000  1
  O  O1324  1  0.39045000  0.08718000  0.00147000  1
  O  O1325  1  0.25620000  0.90791000  0.22036000  1
  O  O1326  1  0.53287000  0.96713000  0.03287000  1
  O  O1327  1  0.45754000  0.04246000  0.95754000  1
  O  O1328  1  0.26272000  0.17104000  0.73148000  1
  O  O1329  1  0.15145000  0.24013000  0.81687000  1
  O  O1330  1  0.93825000  0.98587000  0.59048000  1
  O  O1331  1  0.17275000  0.17575000  0.82389000  1
  O  O1332  1  0.99317000  0.02126000  0.60803000  1
  O  O1333  1  0.19043000  0.16122000  0.68420000  1
  O  O1334  1  0.20794000  0.21743000  0.75773000  1
  O  O1335  1  0.97731000  0.37311000  0.95754000  1
  O  O1336  1  0.29833000  0.21520000  0.87635000  1
  O  O1337  1  0.24853000  0.16282000  0.85955000  1
  O  O1338  1  0.02964000  0.34209000  0.99380000  1
  O  O1339  1  0.57896000  0.51272000  0.48148000  1
  O  O1340  1  0.50987000  0.40145000  0.56687000  1
  O  O1341  1  0.76413000  0.18825000  0.34048000  1
  O  O1342  1  0.57425000  0.42275000  0.57389000  1
  O  O1343  1  0.72874000  0.24317000  0.35803000  1
  O  O1344  1  0.58878000  0.44043000  0.43420000  1
  O  O1345  1  0.53257000  0.45794000  0.50773000  1
  O  O1346  1  0.37689000  0.22731000  0.70754000  1
  O  O1347  1  0.53480000  0.54833000  0.62635000  1
  O  O1348  1  0.58718000  0.49853000  0.60955000  1
  O  O1349  1  0.40791000  0.27964000  0.74380000  1
  O  O1350  1  0.23728000  0.82896000  0.23148000  1
  O  O1351  1  0.34855000  0.75987000  0.31687000  1
  O  O1352  1  0.56175000  0.01413000  0.09048000  1
  O  O1353  1  0.32725000  0.82425000  0.32389000  1
  O  O1354  1  0.50683000  0.97874000  0.10803000  1
  O  O1355  1  0.30957000  0.83878000  0.18420000  1
  O  O1356  1  0.29206000  0.78257000  0.25773000  1
  O  O1357  1  0.52269000  0.62689000  0.45754000  1
  O  O1358  1  0.20167000  0.78480000  0.37635000  1
  O  O1359  1  0.25147000  0.83718000  0.35955000  1
  O  O1360  1  0.47036000  0.65791000  0.49380000  1
  O  O1361  1  0.92104000  0.48728000  0.98148000  1
  O  O1362  1  0.99013000  0.59855000  0.06687000  1
  O  O1363  1  0.73587000  0.81175000  0.84048000  1
  O  O1364  1  0.92575000  0.57725000  0.07389000  1
  O  O1365  1  0.77126000  0.75683000  0.85803000  1
  O  O1366  1  0.91122000  0.55957000  0.93420000  1
  O  O1367  1  0.96743000  0.54206000  0.00773000  1
  O  O1368  1  0.12311000  0.77269000  0.20754000  1
  O  O1369  1  0.96520000  0.45167000  0.12635000  1
  O  O1370  1  0.91282000  0.50147000  0.10955000  1
  O  O1371  1  0.09209000  0.72036000  0.24380000  1
  O  O1372  1  0.76272000  0.32896000  0.26852000  1
  O  O1373  1  0.65145000  0.25987000  0.18313000  1
  O  O1374  1  0.43825000  0.51413000  0.40952000  1
  O  O1375  1  0.67275000  0.32425000  0.17611000  1
  O  O1376  1  0.49317000  0.47874000  0.39197000  1
  O  O1377  1  0.69043000  0.33878000  0.31580000  1
  O  O1378  1  0.70794000  0.28257000  0.24227000  1
  O  O1379  1  0.47731000  0.12689000  0.04246000  1
  O  O1380  1  0.79833000  0.28480000  0.12365000  1
  O  O1381  1  0.74853000  0.33718000  0.14045000  1
  O  O1382  1  0.52964000  0.15791000  0.00620000  1
  O  O1383  1  0.42104000  0.01272000  0.01852000  1
  O  O1384  1  0.49013000  0.90145000  0.93313000  1
  O  O1385  1  0.23587000  0.68825000  0.15952000  1
  O  O1386  1  0.42575000  0.92275000  0.92611000  1
  O  O1387  1  0.27126000  0.74317000  0.14197000  1
  O  O1388  1  0.41122000  0.94043000  0.06580000  1
  O  O1389  1  0.46743000  0.95794000  0.99227000  1
  O  O1390  1  0.62311000  0.72731000  0.79246000  1
  O  O1391  1  0.46520000  0.04833000  0.87365000  1
  O  O1392  1  0.41282000  0.99853000  0.89045000  1
  O  O1393  1  0.59209000  0.77964000  0.75620000  1
  O  O1394  1  0.73728000  0.67104000  0.76852000  1
  O  O1395  1  0.84855000  0.74013000  0.68313000  1
  O  O1396  1  0.06175000  0.48587000  0.90952000  1
  O  O1397  1  0.82725000  0.67575000  0.67611000  1
  O  O1398  1  0.00683000  0.52126000  0.89197000  1
  O  O1399  1  0.80957000  0.66122000  0.81580000  1
  O  O1400  1  0.79206000  0.71743000  0.74227000  1
  O  O1401  1  0.02269000  0.87311000  0.54246000  1
  O  O1402  1  0.70167000  0.71520000  0.62365000  1
  O  O1403  1  0.75147000  0.66282000  0.64045000  1
  O  O1404  1  0.97036000  0.84209000  0.50620000  1
  O  O1405  1  0.07896000  0.98728000  0.51852000  1
  O  O1406  1  0.00987000  0.09855000  0.43313000  1
  O  O1407  1  0.26413000  0.31175000  0.65952000  1
  O  O1408  1  0.07425000  0.07725000  0.42611000  1
  O  O1409  1  0.22874000  0.25683000  0.64197000  1
  O  O1410  1  0.08878000  0.05957000  0.56580000  1
  O  O1411  1  0.03257000  0.04206000  0.49227000  1
  O  O1412  1  0.87689000  0.27269000  0.29246000  1
  O  O1413  1  0.03480000  0.95167000  0.37365000  1
  O  O1414  1  0.08718000  0.00147000  0.39045000  1
  O  O1415  1  0.90791000  0.22036000  0.25620000  1
  O  O1416  1  0.73148000  0.26272000  0.17104000  1
  O  O1417  1  0.81687000  0.15145000  0.24013000  1
  O  O1418  1  0.59048000  0.93825000  0.98587000  1
  O  O1419  1  0.82389000  0.17275000  0.17575000  1
  O  O1420  1  0.60803000  0.99317000  0.02126000  1
  O  O1421  1  0.68420000  0.19043000  0.16122000  1
  O  O1422  1  0.75773000  0.20794000  0.21743000  1
  O  O1423  1  0.95754000  0.97731000  0.37311000  1
  O  O1424  1  0.87635000  0.29833000  0.21520000  1
  O  O1425  1  0.85955000  0.24853000  0.16282000  1
  O  O1426  1  0.99380000  0.02964000  0.34209000  1
  O  O1427  1  0.23148000  0.23728000  0.82896000  1
  O  O1428  1  0.31687000  0.34855000  0.75987000  1
  O  O1429  1  0.09048000  0.56175000  0.01413000  1
  O  O1430  1  0.32389000  0.32725000  0.82425000  1
  O  O1431  1  0.10803000  0.50683000  0.97874000  1
  O  O1432  1  0.18420000  0.30957000  0.83878000  1
  O  O1433  1  0.25773000  0.29206000  0.78257000  1
  O  O1434  1  0.45754000  0.52269000  0.62689000  1
  O  O1435  1  0.37635000  0.20167000  0.78480000  1
  O  O1436  1  0.35955000  0.25147000  0.83718000  1
  O  O1437  1  0.49380000  0.47036000  0.65791000  1
  O  O1438  1  0.51272000  0.48148000  0.57896000  1
  O  O1439  1  0.40145000  0.56687000  0.50987000  1
  O  O1440  1  0.18825000  0.34048000  0.76413000  1
  O  O1441  1  0.42275000  0.57389000  0.57425000  1
  O  O1442  1  0.24317000  0.35803000  0.72874000  1
  O  O1443  1  0.44043000  0.43420000  0.58878000  1
  O  O1444  1  0.45794000  0.50773000  0.53257000  1
  O  O1445  1  0.22731000  0.70754000  0.37689000  1
  O  O1446  1  0.54833000  0.62635000  0.53480000  1
  O  O1447  1  0.49853000  0.60955000  0.58718000  1
  O  O1448  1  0.27964000  0.74380000  0.40791000  1
  O  O1449  1  0.26852000  0.76272000  0.32896000  1
  O  O1450  1  0.18313000  0.65145000  0.25987000  1
  O  O1451  1  0.40952000  0.43825000  0.51413000  1
  O  O1452  1  0.17611000  0.67275000  0.32425000  1
  O  O1453  1  0.39197000  0.49317000  0.47874000  1
  O  O1454  1  0.31580000  0.69043000  0.33878000  1
  O  O1455  1  0.24227000  0.70794000  0.28257000  1
  O  O1456  1  0.04246000  0.47731000  0.12689000  1
  O  O1457  1  0.12365000  0.79833000  0.28480000  1
  O  O1458  1  0.14045000  0.74853000  0.33718000  1
  O  O1459  1  0.00620000  0.52964000  0.15791000  1
  O  O1460  1  0.98728000  0.51852000  0.07896000  1
  O  O1461  1  0.09855000  0.43313000  0.00987000  1
  O  O1462  1  0.31175000  0.65952000  0.26413000  1
  O  O1463  1  0.07725000  0.42611000  0.07425000  1
  O  O1464  1  0.25683000  0.64197000  0.22874000  1
  O  O1465  1  0.05957000  0.56580000  0.08878000  1
  O  O1466  1  0.04206000  0.49227000  0.03257000  1
  O  O1467  1  0.27269000  0.29246000  0.87689000  1
  O  O1468  1  0.95167000  0.37365000  0.03480000  1
  O  O1469  1  0.00147000  0.39045000  0.08718000  1
  O  O1470  1  0.22036000  0.25620000  0.90791000  1
  O  O1471  1  0.76852000  0.73728000  0.67104000  1
  O  O1472  1  0.68313000  0.84855000  0.74013000  1
  O  O1473  1  0.90952000  0.06175000  0.48587000  1
  O  O1474  1  0.67611000  0.82725000  0.67575000  1
  O  O1475  1  0.89197000  0.00683000  0.52126000  1
  O  O1476  1  0.81580000  0.80957000  0.66122000  1
  O  O1477  1  0.74227000  0.79206000  0.71743000  1
  O  O1478  1  0.54246000  0.02269000  0.87311000  1
  O  O1479  1  0.62365000  0.70167000  0.71520000  1
  O  O1480  1  0.64045000  0.75147000  0.66282000  1
  O  O1481  1  0.50620000  0.97036000  0.84209000  1
  O  O1482  1  0.01272000  0.01852000  0.42104000  1
  O  O1483  1  0.90145000  0.93313000  0.49013000  1
  O  O1484  1  0.68825000  0.15952000  0.23587000  1
  O  O1485  1  0.92275000  0.92611000  0.42575000  1
  O  O1486  1  0.74317000  0.14197000  0.27126000  1
  O  O1487  1  0.94043000  0.06580000  0.41122000  1
  O  O1488  1  0.95794000  0.99227000  0.46743000  1
  O  O1489  1  0.72731000  0.79246000  0.62311000  1
  O  O1490  1  0.04833000  0.87365000  0.46520000  1
  O  O1491  1  0.99853000  0.89045000  0.41282000  1
  O  O1492  1  0.77964000  0.75620000  0.59209000  1
  O  O1493  1  0.48728000  0.98148000  0.92104000  1
  O  O1494  1  0.59855000  0.06687000  0.99013000  1
  O  O1495  1  0.81175000  0.84048000  0.73587000  1
  O  O1496  1  0.57725000  0.07389000  0.92575000  1
  O  O1497  1  0.75683000  0.85803000  0.77126000  1
  O  O1498  1  0.55957000  0.93420000  0.91122000  1
  O  O1499  1  0.54206000  0.00773000  0.96743000  1
  O  O1500  1  0.77269000  0.20754000  0.12311000  1
  O  O1501  1  0.45167000  0.12635000  0.96520000  1
  O  O1502  1  0.50147000  0.10955000  0.91282000  1
  O  O1503  1  0.72036000  0.24380000  0.09209000  1
