# generated using pymatgen
data_Zr6H60C96O35
_symmetry_space_group_name_H-M   'P 1'
_cell_length_a   32.92250000
_cell_length_b   32.92250000
_cell_length_c   32.92250000
_cell_angle_alpha   90.00000000
_cell_angle_beta   90.00000000
_cell_angle_gamma   90.00000000
_symmetry_Int_Tables_number   1
_chemical_formula_structural   Zr6H60C96O35
_chemical_formula_sum   'Zr48 H480 C768 O280'
_cell_volume   35684.40165327
_cell_formula_units_Z   8
loop_
 _symmetry_equiv_pos_site_id
 _symmetry_equiv_pos_as_xyz
  1  'x, y, z'
loop_
 _atom_site_type_symbol
 _atom_site_label
 _atom_site_symmetry_multiplicity
 _atom_site_fract_x
 _atom_site_fract_y
 _atom_site_fract_z
 _atom_site_occupancy
  Zr  Zr0  1  0.52751000  0.47110000  0.44296000  1
  Zr  Zr1  1  0.73314000  0.31868000  0.20909000  1
  Zr  Zr2  1  0.97249000  0.52890000  0.94296000  1
  Zr  Zr3  1  0.76686000  0.68132000  0.70909000  1
  Zr  Zr4  1  0.47249000  0.97110000  0.05704000  1
  Zr  Zr5  1  0.26686000  0.81868000  0.29091000  1
  Zr  Zr6  1  0.02751000  0.02890000  0.55704000  1
  Zr  Zr7  1  0.23314000  0.18132000  0.79091000  1
  Zr  Zr8  1  0.44296000  0.52751000  0.47110000  1
  Zr  Zr9  1  0.20909000  0.73314000  0.31868000  1
  Zr  Zr10  1  0.94296000  0.97249000  0.52890000  1
  Zr  Zr11  1  0.70909000  0.76686000  0.68132000  1
  Zr  Zr12  1  0.05704000  0.47249000  0.97110000  1
  Zr  Zr13  1  0.29091000  0.26686000  0.81868000  1
  Zr  Zr14  1  0.55704000  0.02751000  0.02890000  1
  Zr  Zr15  1  0.79091000  0.23314000  0.18132000  1
  Zr  Zr16  1  0.47110000  0.44296000  0.52751000  1
  Zr  Zr17  1  0.31868000  0.20909000  0.73314000  1
  Zr  Zr18  1  0.52890000  0.94296000  0.97249000  1
  Zr  Zr19  1  0.68132000  0.70909000  0.76686000  1
  Zr  Zr20  1  0.97110000  0.05704000  0.47249000  1
  Zr  Zr21  1  0.81868000  0.29091000  0.26686000  1
  Zr  Zr22  1  0.02890000  0.55704000  0.02751000  1
  Zr  Zr23  1  0.18132000  0.79091000  0.23314000  1
  Zr  Zr24  1  0.72110000  0.27751000  0.30704000  1
  Zr  Zr25  1  0.56868000  0.48314000  0.54091000  1
  Zr  Zr26  1  0.77890000  0.72249000  0.80704000  1
  Zr  Zr27  1  0.93132000  0.51686000  0.04091000  1
  Zr  Zr28  1  0.22110000  0.22249000  0.69296000  1
  Zr  Zr29  1  0.06868000  0.01686000  0.45909000  1
  Zr  Zr30  1  0.27890000  0.77751000  0.19296000  1
  Zr  Zr31  1  0.43132000  0.98314000  0.95909000  1
  Zr  Zr32  1  0.77751000  0.19296000  0.27890000  1
  Zr  Zr33  1  0.98314000  0.95909000  0.43132000  1
  Zr  Zr34  1  0.22249000  0.69296000  0.22110000  1
  Zr  Zr35  1  0.01686000  0.45909000  0.06868000  1
  Zr  Zr36  1  0.72249000  0.80704000  0.77890000  1
  Zr  Zr37  1  0.51686000  0.04091000  0.93132000  1
  Zr  Zr38  1  0.27751000  0.30704000  0.72110000  1
  Zr  Zr39  1  0.48314000  0.54091000  0.56868000  1
  Zr  Zr40  1  0.69296000  0.22110000  0.22249000  1
  Zr  Zr41  1  0.45909000  0.06868000  0.01686000  1
  Zr  Zr42  1  0.19296000  0.27890000  0.77751000  1
  Zr  Zr43  1  0.95909000  0.43132000  0.98314000  1
  Zr  Zr44  1  0.30704000  0.72110000  0.27751000  1
  Zr  Zr45  1  0.54091000  0.56868000  0.48314000  1
  Zr  Zr46  1  0.80704000  0.77890000  0.72249000  1
  Zr  Zr47  1  0.04091000  0.93132000  0.51686000  1
  H  H48  1  0.58820000  0.41480000  0.44750000  1
  H  H49  1  0.60630000  0.45130000  0.43100000  1
  H  H50  1  0.53880000  0.66110000  0.18760000  1
  H  H51  1  0.50130000  0.71200000  0.22080000  1
  H  H52  1  0.58740000  0.61360000  0.35840000  1
  H  H53  1  0.57300000  0.49410000  0.32630000  1
  H  H54  1  0.68680000  0.53740000  0.26820000  1
  H  H55  1  0.58580000  0.51140000  0.26030000  1
  H  H56  1  0.67410000  0.55470000  0.14950000  1
  H  H57  1  0.57330000  0.62450000  0.21900000  1
  H  H58  1  0.39640000  0.74230000  0.13030000  1
  H  H59  1  0.45920000  0.72310000  0.10530000  1
  H  H60  1  0.43870000  0.72740000  0.24440000  1
  H  H61  1  0.61140000  0.62520000  0.29130000  1
  H  H62  1  0.71690000  0.47540000  0.28650000  1
  H  H63  1  0.63740000  0.48510000  0.17030000  1
  H  H64  1  0.83220000  0.43250000  0.25010000  1
  H  H65  1  0.80970000  0.43460000  0.20820000  1
  H  H66  1  0.85460000  0.41900000  0.21030000  1
  H  H67  1  0.66280000  0.41750000  0.19170000  1
  H  H68  1  0.91180000  0.58520000  0.94750000  1
  H  H69  1  0.89370000  0.54870000  0.93100000  1
  H  H70  1  0.96120000  0.33890000  0.68760000  1
  H  H71  1  0.99870000  0.28800000  0.72080000  1
  H  H72  1  0.91260000  0.38640000  0.85840000  1
  H  H73  1  0.92700000  0.50590000  0.82630000  1
  H  H74  1  0.81320000  0.46260000  0.76820000  1
  H  H75  1  0.91420000  0.48860000  0.76030000  1
  H  H76  1  0.82590000  0.44530000  0.64950000  1
  H  H77  1  0.92670000  0.37550000  0.71900000  1
  H  H78  1  0.10360000  0.25770000  0.63030000  1
  H  H79  1  0.04080000  0.27690000  0.60530000  1
  H  H80  1  0.06130000  0.27260000  0.74440000  1
  H  H81  1  0.88860000  0.37480000  0.79130000  1
  H  H82  1  0.78310000  0.52460000  0.78650000  1
  H  H83  1  0.86260000  0.51490000  0.67030000  1
  H  H84  1  0.66780000  0.56750000  0.75010000  1
  H  H85  1  0.69030000  0.56540000  0.70820000  1
  H  H86  1  0.64540000  0.58100000  0.71030000  1
  H  H87  1  0.83720000  0.58250000  0.69170000  1
  H  H88  1  0.41180000  0.91480000  0.05250000  1
  H  H89  1  0.39370000  0.95130000  0.06900000  1
  H  H90  1  0.46120000  0.16110000  0.31240000  1
  H  H91  1  0.49870000  0.21200000  0.27920000  1
  H  H92  1  0.41260000  0.11360000  0.14160000  1
  H  H93  1  0.42700000  0.99410000  0.17370000  1
  H  H94  1  0.31320000  0.03740000  0.23180000  1
  H  H95  1  0.41420000  0.01140000  0.23970000  1
  H  H96  1  0.32590000  0.05470000  0.35050000  1
  H  H97  1  0.42670000  0.12450000  0.28100000  1
  H  H98  1  0.60360000  0.24230000  0.36970000  1
  H  H99  1  0.54080000  0.22310000  0.39470000  1
  H  H100  1  0.56130000  0.22740000  0.25560000  1
  H  H101  1  0.38860000  0.12520000  0.20870000  1
  H  H102  1  0.28310000  0.97540000  0.21350000  1
  H  H103  1  0.36260000  0.98510000  0.32970000  1
  H  H104  1  0.16780000  0.93250000  0.24990000  1
  H  H105  1  0.19030000  0.93460000  0.29180000  1
  H  H106  1  0.14540000  0.91900000  0.28970000  1
  H  H107  1  0.33720000  0.91750000  0.30830000  1
  H  H108  1  0.08820000  0.08520000  0.55250000  1
  H  H109  1  0.10630000  0.04870000  0.56900000  1
  H  H110  1  0.03880000  0.83890000  0.81240000  1
  H  H111  1  0.00130000  0.78800000  0.77920000  1
  H  H112  1  0.08740000  0.88640000  0.64160000  1
  H  H113  1  0.07300000  0.00590000  0.67370000  1
  H  H114  1  0.18680000  0.96260000  0.73180000  1
  H  H115  1  0.08580000  0.98860000  0.73970000  1
  H  H116  1  0.17410000  0.94530000  0.85050000  1
  H  H117  1  0.07330000  0.87550000  0.78100000  1
  H  H118  1  0.89640000  0.75770000  0.86970000  1
  H  H119  1  0.95920000  0.77690000  0.89470000  1
  H  H120  1  0.93870000  0.77260000  0.75560000  1
  H  H121  1  0.11140000  0.87480000  0.70870000  1
  H  H122  1  0.21690000  0.02460000  0.71350000  1
  H  H123  1  0.13740000  0.01490000  0.82970000  1
  H  H124  1  0.33220000  0.06750000  0.74990000  1
  H  H125  1  0.30970000  0.06540000  0.79180000  1
  H  H126  1  0.35460000  0.08100000  0.78970000  1
  H  H127  1  0.16280000  0.08250000  0.80830000  1
  H  H128  1  0.44750000  0.58820000  0.41480000  1
  H  H129  1  0.43100000  0.60630000  0.45130000  1
  H  H130  1  0.18760000  0.53880000  0.66110000  1
  H  H131  1  0.22080000  0.50130000  0.71200000  1
  H  H132  1  0.35840000  0.58740000  0.61360000  1
  H  H133  1  0.32630000  0.57300000  0.49410000  1
  H  H134  1  0.26820000  0.68680000  0.53740000  1
  H  H135  1  0.26030000  0.58580000  0.51140000  1
  H  H136  1  0.14950000  0.67410000  0.55470000  1
  H  H137  1  0.21900000  0.57330000  0.62450000  1
  H  H138  1  0.13030000  0.39640000  0.74230000  1
  H  H139  1  0.10530000  0.45920000  0.72310000  1
  H  H140  1  0.24440000  0.43870000  0.72740000  1
  H  H141  1  0.29130000  0.61140000  0.62520000  1
  H  H142  1  0.28650000  0.71690000  0.47540000  1
  H  H143  1  0.17030000  0.63740000  0.48510000  1
  H  H144  1  0.25010000  0.83220000  0.43250000  1
  H  H145  1  0.20820000  0.80970000  0.43460000  1
  H  H146  1  0.21030000  0.85460000  0.41900000  1
  H  H147  1  0.19170000  0.66280000  0.41750000  1
  H  H148  1  0.94750000  0.91180000  0.58520000  1
  H  H149  1  0.93100000  0.89370000  0.54870000  1
  H  H150  1  0.68760000  0.96120000  0.33890000  1
  H  H151  1  0.72080000  0.99870000  0.28800000  1
  H  H152  1  0.85840000  0.91260000  0.38640000  1
  H  H153  1  0.82630000  0.92700000  0.50590000  1
  H  H154  1  0.76820000  0.81320000  0.46260000  1
  H  H155  1  0.76030000  0.91420000  0.48860000  1
  H  H156  1  0.64950000  0.82590000  0.44530000  1
  H  H157  1  0.71900000  0.92670000  0.37550000  1
  H  H158  1  0.63030000  0.10360000  0.25770000  1
  H  H159  1  0.60530000  0.04080000  0.27690000  1
  H  H160  1  0.74440000  0.06130000  0.27260000  1
  H  H161  1  0.79130000  0.88860000  0.37480000  1
  H  H162  1  0.78650000  0.78310000  0.52460000  1
  H  H163  1  0.67030000  0.86260000  0.51490000  1
  H  H164  1  0.75010000  0.66780000  0.56750000  1
  H  H165  1  0.70820000  0.69030000  0.56540000  1
  H  H166  1  0.71030000  0.64540000  0.58100000  1
  H  H167  1  0.69170000  0.83720000  0.58250000  1
  H  H168  1  0.05250000  0.41180000  0.91480000  1
  H  H169  1  0.06900000  0.39370000  0.95130000  1
  H  H170  1  0.31240000  0.46120000  0.16110000  1
  H  H171  1  0.27920000  0.49870000  0.21200000  1
  H  H172  1  0.14160000  0.41260000  0.11360000  1
  H  H173  1  0.17370000  0.42700000  0.99410000  1
  H  H174  1  0.23180000  0.31320000  0.03740000  1
  H  H175  1  0.23970000  0.41420000  0.01140000  1
  H  H176  1  0.35050000  0.32590000  0.05470000  1
  H  H177  1  0.28100000  0.42670000  0.12450000  1
  H  H178  1  0.36970000  0.60360000  0.24230000  1
  H  H179  1  0.39470000  0.54080000  0.22310000  1
  H  H180  1  0.25560000  0.56130000  0.22740000  1
  H  H181  1  0.20870000  0.38860000  0.12520000  1
  H  H182  1  0.21350000  0.28310000  0.97540000  1
  H  H183  1  0.32970000  0.36260000  0.98510000  1
  H  H184  1  0.24990000  0.16780000  0.93250000  1
  H  H185  1  0.29180000  0.19030000  0.93460000  1
  H  H186  1  0.28970000  0.14540000  0.91900000  1
  H  H187  1  0.30830000  0.33720000  0.91750000  1
  H  H188  1  0.55250000  0.08820000  0.08520000  1
  H  H189  1  0.56900000  0.10630000  0.04870000  1
  H  H190  1  0.81240000  0.03880000  0.83890000  1
  H  H191  1  0.77920000  0.00130000  0.78800000  1
  H  H192  1  0.64160000  0.08740000  0.88640000  1
  H  H193  1  0.67370000  0.07300000  0.00590000  1
  H  H194  1  0.73180000  0.18680000  0.96260000  1
  H  H195  1  0.73970000  0.08580000  0.98860000  1
  H  H196  1  0.85050000  0.17410000  0.94530000  1
  H  H197  1  0.78100000  0.07330000  0.87550000  1
  H  H198  1  0.86970000  0.89640000  0.75770000  1
  H  H199  1  0.89470000  0.95920000  0.77690000  1
  H  H200  1  0.75560000  0.93870000  0.77260000  1
  H  H201  1  0.70870000  0.11140000  0.87480000  1
  H  H202  1  0.71350000  0.21690000  0.02460000  1
  H  H203  1  0.82970000  0.13740000  0.01490000  1
  H  H204  1  0.74990000  0.33220000  0.06750000  1
  H  H205  1  0.79180000  0.30970000  0.06540000  1
  H  H206  1  0.78970000  0.35460000  0.08100000  1
  H  H207  1  0.80830000  0.16280000  0.08250000  1
  H  H208  1  0.41480000  0.44750000  0.58820000  1
  H  H209  1  0.45130000  0.43100000  0.60630000  1
  H  H210  1  0.66110000  0.18760000  0.53880000  1
  H  H211  1  0.71200000  0.22080000  0.50130000  1
  H  H212  1  0.61360000  0.35840000  0.58740000  1
  H  H213  1  0.49410000  0.32630000  0.57300000  1
  H  H214  1  0.53740000  0.26820000  0.68680000  1
  H  H215  1  0.51140000  0.26030000  0.58580000  1
  H  H216  1  0.55470000  0.14950000  0.67410000  1
  H  H217  1  0.62450000  0.21900000  0.57330000  1
  H  H218  1  0.74230000  0.13030000  0.39640000  1
  H  H219  1  0.72310000  0.10530000  0.45920000  1
  H  H220  1  0.72740000  0.24440000  0.43870000  1
  H  H221  1  0.62520000  0.29130000  0.61140000  1
  H  H222  1  0.47540000  0.28650000  0.71690000  1
  H  H223  1  0.48510000  0.17030000  0.63740000  1
  H  H224  1  0.43250000  0.25010000  0.83220000  1
  H  H225  1  0.43460000  0.20820000  0.80970000  1
  H  H226  1  0.41900000  0.21030000  0.85460000  1
  H  H227  1  0.41750000  0.19170000  0.66280000  1
  H  H228  1  0.58520000  0.94750000  0.91180000  1
  H  H229  1  0.54870000  0.93100000  0.89370000  1
  H  H230  1  0.33890000  0.68760000  0.96120000  1
  H  H231  1  0.28800000  0.72080000  0.99870000  1
  H  H232  1  0.38640000  0.85840000  0.91260000  1
  H  H233  1  0.50590000  0.82630000  0.92700000  1
  H  H234  1  0.46260000  0.76820000  0.81320000  1
  H  H235  1  0.48860000  0.76030000  0.91420000  1
  H  H236  1  0.44530000  0.64950000  0.82590000  1
  H  H237  1  0.37550000  0.71900000  0.92670000  1
  H  H238  1  0.25770000  0.63030000  0.10360000  1
  H  H239  1  0.27690000  0.60530000  0.04080000  1
  H  H240  1  0.27260000  0.74440000  0.06130000  1
  H  H241  1  0.37480000  0.79130000  0.88860000  1
  H  H242  1  0.52460000  0.78650000  0.78310000  1
  H  H243  1  0.51490000  0.67030000  0.86260000  1
  H  H244  1  0.56750000  0.75010000  0.66780000  1
  H  H245  1  0.56540000  0.70820000  0.69030000  1
  H  H246  1  0.58100000  0.71030000  0.64540000  1
  H  H247  1  0.58250000  0.69170000  0.83720000  1
  H  H248  1  0.91480000  0.05250000  0.41180000  1
  H  H249  1  0.95130000  0.06900000  0.39370000  1
  H  H250  1  0.16110000  0.31240000  0.46120000  1
  H  H251  1  0.21200000  0.27920000  0.49870000  1
  H  H252  1  0.11360000  0.14160000  0.41260000  1
  H  H253  1  0.99410000  0.17370000  0.42700000  1
  H  H254  1  0.03740000  0.23180000  0.31320000  1
  H  H255  1  0.01140000  0.23970000  0.41420000  1
  H  H256  1  0.05470000  0.35050000  0.32590000  1
  H  H257  1  0.12450000  0.28100000  0.42670000  1
  H  H258  1  0.24230000  0.36970000  0.60360000  1
  H  H259  1  0.22310000  0.39470000  0.54080000  1
  H  H260  1  0.22740000  0.25560000  0.56130000  1
  H  H261  1  0.12520000  0.20870000  0.38860000  1
  H  H262  1  0.97540000  0.21350000  0.28310000  1
  H  H263  1  0.98510000  0.32970000  0.36260000  1
  H  H264  1  0.93250000  0.24990000  0.16780000  1
  H  H265  1  0.93460000  0.29180000  0.19030000  1
  H  H266  1  0.91900000  0.28970000  0.14540000  1
  H  H267  1  0.91750000  0.30830000  0.33720000  1
  H  H268  1  0.08520000  0.55250000  0.08820000  1
  H  H269  1  0.04870000  0.56900000  0.10630000  1
  H  H270  1  0.83890000  0.81240000  0.03880000  1
  H  H271  1  0.78800000  0.77920000  0.00130000  1
  H  H272  1  0.88640000  0.64160000  0.08740000  1
  H  H273  1  0.00590000  0.67370000  0.07300000  1
  H  H274  1  0.96260000  0.73180000  0.18680000  1
  H  H275  1  0.98860000  0.73970000  0.08580000  1
  H  H276  1  0.94530000  0.85050000  0.17410000  1
  H  H277  1  0.87550000  0.78100000  0.07330000  1
  H  H278  1  0.75770000  0.86970000  0.89640000  1
  H  H279  1  0.77690000  0.89470000  0.95920000  1
  H  H280  1  0.77260000  0.75560000  0.93870000  1
  H  H281  1  0.87480000  0.70870000  0.11140000  1
  H  H282  1  0.02460000  0.71350000  0.21690000  1
  H  H283  1  0.01490000  0.82970000  0.13740000  1
  H  H284  1  0.06750000  0.74990000  0.33220000  1
  H  H285  1  0.06540000  0.79180000  0.30970000  1
  H  H286  1  0.08100000  0.78970000  0.35460000  1
  H  H287  1  0.08250000  0.80830000  0.16280000  1
  H  H288  1  0.66480000  0.33820000  0.30250000  1
  H  H289  1  0.70130000  0.35630000  0.31900000  1
  H  H290  1  0.91110000  0.28880000  0.56240000  1
  H  H291  1  0.96200000  0.25130000  0.52920000  1
  H  H292  1  0.86360000  0.33740000  0.39160000  1
  H  H293  1  0.74410000  0.32300000  0.42370000  1
  H  H294  1  0.78740000  0.43680000  0.48180000  1
  H  H295  1  0.76140000  0.33580000  0.48970000  1
  H  H296  1  0.80470000  0.42410000  0.60050000  1
  H  H297  1  0.87450000  0.32330000  0.53100000  1
  H  H298  1  0.99230000  0.14640000  0.61970000  1
  H  H299  1  0.97310000  0.20920000  0.64470000  1
  H  H300  1  0.97740000  0.18870000  0.50560000  1
  H  H301  1  0.87520000  0.36140000  0.45870000  1
  H  H302  1  0.72540000  0.46690000  0.46350000  1
  H  H303  1  0.73510000  0.38740000  0.57970000  1
  H  H304  1  0.68250000  0.58220000  0.49990000  1
  H  H305  1  0.68460000  0.55970000  0.54180000  1
  H  H306  1  0.66900000  0.60460000  0.53970000  1
  H  H307  1  0.66750000  0.41280000  0.55830000  1
  H  H308  1  0.83520000  0.66180000  0.80250000  1
  H  H309  1  0.79870000  0.64370000  0.81900000  1
  H  H310  1  0.58890000  0.71120000  0.06240000  1
  H  H311  1  0.53800000  0.74870000  0.02920000  1
  H  H312  1  0.63640000  0.66260000  0.89160000  1
  H  H313  1  0.75590000  0.67700000  0.92370000  1
  H  H314  1  0.71260000  0.56320000  0.98180000  1
  H  H315  1  0.73860000  0.66420000  0.98970000  1
  H  H316  1  0.69530000  0.57590000  0.10050000  1
  H  H317  1  0.62550000  0.67670000  0.03100000  1
  H  H318  1  0.50770000  0.85360000  0.11970000  1
  H  H319  1  0.52690000  0.79080000  0.14470000  1
  H  H320  1  0.52260000  0.81130000  0.00560000  1
  H  H321  1  0.62480000  0.63860000  0.95870000  1
  H  H322  1  0.77460000  0.53310000  0.96350000  1
  H  H323  1  0.76490000  0.61260000  0.07970000  1
  H  H324  1  0.81750000  0.41780000  0.99990000  1
  H  H325  1  0.81540000  0.44030000  0.04180000  1
  H  H326  1  0.83100000  0.39540000  0.03970000  1
  H  H327  1  0.83250000  0.58720000  0.05830000  1
  H  H328  1  0.16480000  0.16180000  0.69750000  1
  H  H329  1  0.20130000  0.14370000  0.68100000  1
  H  H330  1  0.41110000  0.21120000  0.43760000  1
  H  H331  1  0.46200000  0.24870000  0.47080000  1
  H  H332  1  0.36360000  0.16260000  0.60840000  1
  H  H333  1  0.24410000  0.17700000  0.57630000  1
  H  H334  1  0.28740000  0.06320000  0.51820000  1
  H  H335  1  0.26140000  0.16420000  0.51030000  1
  H  H336  1  0.30470000  0.07590000  0.39950000  1
  H  H337  1  0.37450000  0.17670000  0.46900000  1
  H  H338  1  0.49230000  0.35360000  0.38030000  1
  H  H339  1  0.47310000  0.29080000  0.35530000  1
  H  H340  1  0.47740000  0.31130000  0.49440000  1
  H  H341  1  0.37520000  0.13860000  0.54130000  1
  H  H342  1  0.22540000  0.03310000  0.53650000  1
  H  H343  1  0.23510000  0.11260000  0.42030000  1
  H  H344  1  0.18250000  0.91780000  0.50010000  1
  H  H345  1  0.18460000  0.94030000  0.45820000  1
  H  H346  1  0.16900000  0.89540000  0.46030000  1
  H  H347  1  0.16750000  0.08720000  0.44170000  1
  H  H348  1  0.33520000  0.83820000  0.19750000  1
  H  H349  1  0.29870000  0.85630000  0.18100000  1
  H  H350  1  0.08890000  0.78880000  0.93760000  1
  H  H351  1  0.03800000  0.75130000  0.97080000  1
  H  H352  1  0.13640000  0.83740000  0.10840000  1
  H  H353  1  0.25590000  0.82300000  0.07630000  1
  H  H354  1  0.21260000  0.93680000  0.01820000  1
  H  H355  1  0.23860000  0.83580000  0.01030000  1
  H  H356  1  0.19530000  0.92410000  0.89950000  1
  H  H357  1  0.12550000  0.82330000  0.96900000  1
  H  H358  1  0.00770000  0.64640000  0.88030000  1
  H  H359  1  0.02690000  0.70920000  0.85530000  1
  H  H360  1  0.02260000  0.68870000  0.99440000  1
  H  H361  1  0.12480000  0.86140000  0.04130000  1
  H  H362  1  0.27460000  0.96690000  0.03650000  1
  H  H363  1  0.26490000  0.88740000  0.92030000  1
  H  H364  1  0.31750000  0.08220000  0.00010000  1
  H  H365  1  0.31540000  0.05970000  0.95820000  1
  H  H366  1  0.33100000  0.10460000  0.96030000  1
  H  H367  1  0.33250000  0.91280000  0.94170000  1
  H  H368  1  0.83820000  0.19750000  0.33520000  1
  H  H369  1  0.85630000  0.18100000  0.29870000  1
  H  H370  1  0.78880000  0.93760000  0.08890000  1
  H  H371  1  0.75130000  0.97080000  0.03800000  1
  H  H372  1  0.83740000  0.10840000  0.13640000  1
  H  H373  1  0.82300000  0.07630000  0.25590000  1
  H  H374  1  0.93680000  0.01820000  0.21260000  1
  H  H375  1  0.83580000  0.01030000  0.23860000  1
  H  H376  1  0.92410000  0.89950000  0.19530000  1
  H  H377  1  0.82330000  0.96900000  0.12550000  1
  H  H378  1  0.64640000  0.88030000  0.00770000  1
  H  H379  1  0.70920000  0.85530000  0.02690000  1
  H  H380  1  0.68870000  0.99440000  0.02260000  1
  H  H381  1  0.86140000  0.04130000  0.12480000  1
  H  H382  1  0.96690000  0.03650000  0.27460000  1
  H  H383  1  0.88740000  0.92030000  0.26490000  1
  H  H384  1  0.08220000  0.00010000  0.31750000  1
  H  H385  1  0.05970000  0.95820000  0.31540000  1
  H  H386  1  0.10460000  0.96030000  0.33100000  1
  H  H387  1  0.91280000  0.94170000  0.33250000  1
  H  H388  1  0.16180000  0.69750000  0.16480000  1
  H  H389  1  0.14370000  0.68100000  0.20130000  1
  H  H390  1  0.21120000  0.43760000  0.41110000  1
  H  H391  1  0.24870000  0.47080000  0.46200000  1
  H  H392  1  0.16260000  0.60840000  0.36360000  1
  H  H393  1  0.17700000  0.57630000  0.24410000  1
  H  H394  1  0.06320000  0.51820000  0.28740000  1
  H  H395  1  0.16420000  0.51030000  0.26140000  1
  H  H396  1  0.07590000  0.39950000  0.30470000  1
  H  H397  1  0.17670000  0.46900000  0.37450000  1
  H  H398  1  0.35360000  0.38030000  0.49230000  1
  H  H399  1  0.29080000  0.35530000  0.47310000  1
  H  H400  1  0.31130000  0.49440000  0.47740000  1
  H  H401  1  0.13860000  0.54130000  0.37520000  1
  H  H402  1  0.03310000  0.53650000  0.22540000  1
  H  H403  1  0.11260000  0.42030000  0.23510000  1
  H  H404  1  0.91780000  0.50010000  0.18250000  1
  H  H405  1  0.94030000  0.45820000  0.18460000  1
  H  H406  1  0.89540000  0.46030000  0.16900000  1
  H  H407  1  0.08720000  0.44170000  0.16750000  1
  H  H408  1  0.66180000  0.80250000  0.83520000  1
  H  H409  1  0.64370000  0.81900000  0.79870000  1
  H  H410  1  0.71120000  0.06240000  0.58890000  1
  H  H411  1  0.74870000  0.02920000  0.53800000  1
  H  H412  1  0.66260000  0.89160000  0.63640000  1
  H  H413  1  0.67700000  0.92370000  0.75590000  1
  H  H414  1  0.56320000  0.98180000  0.71260000  1
  H  H415  1  0.66420000  0.98970000  0.73860000  1
  H  H416  1  0.57590000  0.10050000  0.69530000  1
  H  H417  1  0.67670000  0.03100000  0.62550000  1
  H  H418  1  0.85360000  0.11970000  0.50770000  1
  H  H419  1  0.79080000  0.14470000  0.52690000  1
  H  H420  1  0.81130000  0.00560000  0.52260000  1
  H  H421  1  0.63860000  0.95870000  0.62480000  1
  H  H422  1  0.53310000  0.96350000  0.77460000  1
  H  H423  1  0.61260000  0.07970000  0.76490000  1
  H  H424  1  0.41780000  0.99990000  0.81750000  1
  H  H425  1  0.44030000  0.04180000  0.81540000  1
  H  H426  1  0.39540000  0.03970000  0.83100000  1
  H  H427  1  0.58720000  0.05830000  0.83250000  1
  H  H428  1  0.33820000  0.30250000  0.66480000  1
  H  H429  1  0.35630000  0.31900000  0.70130000  1
  H  H430  1  0.28880000  0.56240000  0.91110000  1
  H  H431  1  0.25130000  0.52920000  0.96200000  1
  H  H432  1  0.33740000  0.39160000  0.86360000  1
  H  H433  1  0.32300000  0.42370000  0.74410000  1
  H  H434  1  0.43680000  0.48180000  0.78740000  1
  H  H435  1  0.33580000  0.48970000  0.76140000  1
  H  H436  1  0.42410000  0.60050000  0.80470000  1
  H  H437  1  0.32330000  0.53100000  0.87450000  1
  H  H438  1  0.14640000  0.61970000  0.99230000  1
  H  H439  1  0.20920000  0.64470000  0.97310000  1
  H  H440  1  0.18870000  0.50560000  0.97740000  1
  H  H441  1  0.36140000  0.45870000  0.87520000  1
  H  H442  1  0.46690000  0.46350000  0.72540000  1
  H  H443  1  0.38740000  0.57970000  0.73510000  1
  H  H444  1  0.58220000  0.49990000  0.68250000  1
  H  H445  1  0.55970000  0.54180000  0.68460000  1
  H  H446  1  0.60460000  0.53970000  0.66900000  1
  H  H447  1  0.41280000  0.55830000  0.66750000  1
  H  H448  1  0.69750000  0.16480000  0.16180000  1
  H  H449  1  0.68100000  0.20130000  0.14370000  1
  H  H450  1  0.43760000  0.41110000  0.21120000  1
  H  H451  1  0.47080000  0.46200000  0.24870000  1
  H  H452  1  0.60840000  0.36360000  0.16260000  1
  H  H453  1  0.57630000  0.24410000  0.17700000  1
  H  H454  1  0.51820000  0.28740000  0.06320000  1
  H  H455  1  0.51030000  0.26140000  0.16420000  1
  H  H456  1  0.39950000  0.30470000  0.07590000  1
  H  H457  1  0.46900000  0.37450000  0.17670000  1
  H  H458  1  0.38030000  0.49230000  0.35360000  1
  H  H459  1  0.35530000  0.47310000  0.29080000  1
  H  H460  1  0.49440000  0.47740000  0.31130000  1
  H  H461  1  0.54130000  0.37520000  0.13860000  1
  H  H462  1  0.53650000  0.22540000  0.03310000  1
  H  H463  1  0.42030000  0.23510000  0.11260000  1
  H  H464  1  0.50010000  0.18250000  0.91780000  1
  H  H465  1  0.45820000  0.18460000  0.94030000  1
  H  H466  1  0.46030000  0.16900000  0.89540000  1
  H  H467  1  0.44170000  0.16750000  0.08720000  1
  H  H468  1  0.19750000  0.33520000  0.83820000  1
  H  H469  1  0.18100000  0.29870000  0.85630000  1
  H  H470  1  0.93760000  0.08890000  0.78880000  1
  H  H471  1  0.97080000  0.03800000  0.75130000  1
  H  H472  1  0.10840000  0.13640000  0.83740000  1
  H  H473  1  0.07630000  0.25590000  0.82300000  1
  H  H474  1  0.01820000  0.21260000  0.93680000  1
  H  H475  1  0.01030000  0.23860000  0.83580000  1
  H  H476  1  0.89950000  0.19530000  0.92410000  1
  H  H477  1  0.96900000  0.12550000  0.82330000  1
  H  H478  1  0.88030000  0.00770000  0.64640000  1
  H  H479  1  0.85530000  0.02690000  0.70920000  1
  H  H480  1  0.99440000  0.02260000  0.68870000  1
  H  H481  1  0.04130000  0.12480000  0.86140000  1
  H  H482  1  0.03650000  0.27460000  0.96690000  1
  H  H483  1  0.92030000  0.26490000  0.88740000  1
  H  H484  1  0.00010000  0.31750000  0.08220000  1
  H  H485  1  0.95820000  0.31540000  0.05970000  1
  H  H486  1  0.96030000  0.33100000  0.10460000  1
  H  H487  1  0.94170000  0.33250000  0.91280000  1
  H  H488  1  0.30250000  0.66480000  0.33820000  1
  H  H489  1  0.31900000  0.70130000  0.35630000  1
  H  H490  1  0.56240000  0.91110000  0.28880000  1
  H  H491  1  0.52920000  0.96200000  0.25130000  1
  H  H492  1  0.39160000  0.86360000  0.33740000  1
  H  H493  1  0.42370000  0.74410000  0.32300000  1
  H  H494  1  0.48180000  0.78740000  0.43680000  1
  H  H495  1  0.48970000  0.76140000  0.33580000  1
  H  H496  1  0.60050000  0.80470000  0.42410000  1
  H  H497  1  0.53100000  0.87450000  0.32330000  1
  H  H498  1  0.61970000  0.99230000  0.14640000  1
  H  H499  1  0.64470000  0.97310000  0.20920000  1
  H  H500  1  0.50560000  0.97740000  0.18870000  1
  H  H501  1  0.45870000  0.87520000  0.36140000  1
  H  H502  1  0.46350000  0.72540000  0.46690000  1
  H  H503  1  0.57970000  0.73510000  0.38740000  1
  H  H504  1  0.49990000  0.68250000  0.58220000  1
  H  H505  1  0.54180000  0.68460000  0.55970000  1
  H  H506  1  0.53970000  0.66900000  0.60460000  1
  H  H507  1  0.55830000  0.66750000  0.41280000  1
  H  H508  1  0.80250000  0.83520000  0.66180000  1
  H  H509  1  0.81900000  0.79870000  0.64370000  1
  H  H510  1  0.06240000  0.58890000  0.71120000  1
  H  H511  1  0.02920000  0.53800000  0.74870000  1
  H  H512  1  0.89160000  0.63640000  0.66260000  1
  H  H513  1  0.92370000  0.75590000  0.67700000  1
  H  H514  1  0.98180000  0.71260000  0.56320000  1
  H  H515  1  0.98970000  0.73860000  0.66420000  1
  H  H516  1  0.10050000  0.69530000  0.57590000  1
  H  H517  1  0.03100000  0.62550000  0.67670000  1
  H  H518  1  0.11970000  0.50770000  0.85360000  1
  H  H519  1  0.14470000  0.52690000  0.79080000  1
  H  H520  1  0.00560000  0.52260000  0.81130000  1
  H  H521  1  0.95870000  0.62480000  0.63860000  1
  H  H522  1  0.96350000  0.77460000  0.53310000  1
  H  H523  1  0.07970000  0.76490000  0.61260000  1
  H  H524  1  0.99990000  0.81750000  0.41780000  1
  H  H525  1  0.04180000  0.81540000  0.44030000  1
  H  H526  1  0.03970000  0.83100000  0.39540000  1
  H  H527  1  0.05830000  0.83250000  0.58720000  1
  C  C528  1  0.41040000  0.73280000  0.19090000  1
  C  C529  1  0.48610000  0.71820000  0.16030000  1
  C  C530  1  0.69420000  0.44280000  0.24080000  1
  C  C531  1  0.58380000  0.65320000  0.14330000  1
  C  C532  1  0.54810000  0.67140000  0.16290000  1
  C  C533  1  0.48010000  0.71780000  0.20310000  1
  C  C534  1  0.65920000  0.51650000  0.21750000  1
  C  C535  1  0.58980000  0.59250000  0.33980000  1
  C  C536  1  0.57980000  0.52070000  0.31980000  1
  C  C537  1  0.68280000  0.51440000  0.25230000  1
  C  C538  1  0.36960000  0.74020000  0.20460000  1
  C  C539  1  0.58930000  0.53130000  0.28000000  1
  C  C540  1  0.57080000  0.54490000  0.39090000  1
  C  C541  1  0.71140000  0.40450000  0.25260000  1
  C  C542  1  0.65390000  0.56870000  0.16340000  1
  C  C543  1  0.63450000  0.60140000  0.14510000  1
  C  C544  1  0.60430000  0.62230000  0.16600000  1
  C  C545  1  0.59350000  0.61050000  0.20510000  1
  C  C546  1  0.61300000  0.57780000  0.22330000  1
  C  C547  1  0.64320000  0.55690000  0.20250000  1
  C  C548  1  0.60270000  0.56690000  0.26770000  1
  C  C549  1  0.41720000  0.73470000  0.14780000  1
  C  C550  1  0.45480000  0.72500000  0.13310000  1
  C  C551  1  0.44290000  0.72610000  0.21650000  1
  C  C552  1  0.60270000  0.59930000  0.29870000  1
  C  C553  1  0.81370000  0.37650000  0.23010000  1
  C  C554  1  0.70060000  0.47690000  0.26350000  1
  C  C555  1  0.58070000  0.55120000  0.35040000  1
  C  C556  1  0.65250000  0.48250000  0.19410000  1
  C  C557  1  0.52760000  0.70460000  0.14460000  1
  C  C558  1  0.82900000  0.41960000  0.22410000  1
  C  C559  1  0.66870000  0.44130000  0.20580000  1
  C  C560  1  0.08960000  0.26720000  0.69090000  1
  C  C561  1  0.01390000  0.28180000  0.66030000  1
  C  C562  1  0.80580000  0.55720000  0.74080000  1
  C  C563  1  0.91620000  0.34680000  0.64330000  1
  C  C564  1  0.95190000  0.32860000  0.66290000  1
  C  C565  1  0.01990000  0.28220000  0.70310000  1
  C  C566  1  0.84080000  0.48350000  0.71750000  1
  C  C567  1  0.91020000  0.40750000  0.83980000  1
  C  C568  1  0.92020000  0.47930000  0.81980000  1
  C  C569  1  0.81720000  0.48560000  0.75230000  1
  C  C570  1  0.13040000  0.25980000  0.70460000  1
  C  C571  1  0.91070000  0.46870000  0.78000000  1
  C  C572  1  0.92920000  0.45510000  0.89090000  1
  C  C573  1  0.78860000  0.59550000  0.75260000  1
  C  C574  1  0.84610000  0.43130000  0.66340000  1
  C  C575  1  0.86550000  0.39860000  0.64510000  1
  C  C576  1  0.89570000  0.37770000  0.66600000  1
  C  C577  1  0.90650000  0.38950000  0.70510000  1
  C  C578  1  0.88700000  0.42220000  0.72330000  1
  C  C579  1  0.85680000  0.44310000  0.70250000  1
  C  C580  1  0.89730000  0.43310000  0.76770000  1
  C  C581  1  0.08280000  0.26530000  0.64780000  1
  C  C582  1  0.04520000  0.27500000  0.63310000  1
  C  C583  1  0.05710000  0.27390000  0.71650000  1
  C  C584  1  0.89730000  0.40070000  0.79870000  1
  C  C585  1  0.68630000  0.62350000  0.73010000  1
  C  C586  1  0.79940000  0.52310000  0.76350000  1
  C  C587  1  0.91930000  0.44880000  0.85040000  1
  C  C588  1  0.84750000  0.51750000  0.69410000  1
  C  C589  1  0.97240000  0.29540000  0.64460000  1
  C  C590  1  0.67100000  0.58040000  0.72410000  1
  C  C591  1  0.83130000  0.55870000  0.70580000  1
  C  C592  1  0.58960000  0.23280000  0.30910000  1
  C  C593  1  0.51390000  0.21820000  0.33970000  1
  C  C594  1  0.30580000  0.94280000  0.25920000  1
  C  C595  1  0.41620000  0.15320000  0.35670000  1
  C  C596  1  0.45190000  0.17140000  0.33710000  1
  C  C597  1  0.51990000  0.21780000  0.29690000  1
  C  C598  1  0.34080000  0.01650000  0.28250000  1
  C  C599  1  0.41020000  0.09250000  0.16020000  1
  C  C600  1  0.42020000  0.02070000  0.18020000  1
  C  C601  1  0.31720000  0.01440000  0.24770000  1
  C  C602  1  0.63040000  0.24020000  0.29540000  1
  C  C603  1  0.41070000  0.03130000  0.22000000  1
  C  C604  1  0.42920000  0.04490000  0.10910000  1
  C  C605  1  0.28860000  0.90450000  0.24740000  1
  C  C606  1  0.34610000  0.06870000  0.33660000  1
  C  C607  1  0.36550000  0.10140000  0.35490000  1
  C  C608  1  0.39570000  0.12230000  0.33400000  1
  C  C609  1  0.40650000  0.11050000  0.29490000  1
  C  C610  1  0.38700000  0.07780000  0.27670000  1
  C  C611  1  0.35680000  0.05690000  0.29750000  1
  C  C612  1  0.39730000  0.06690000  0.23230000  1
  C  C613  1  0.58280000  0.23470000  0.35220000  1
  C  C614  1  0.54520000  0.22500000  0.36690000  1
  C  C615  1  0.55710000  0.22610000  0.28350000  1
  C  C616  1  0.39730000  0.09930000  0.20130000  1
  C  C617  1  0.18630000  0.87650000  0.26990000  1
  C  C618  1  0.29940000  0.97690000  0.23650000  1
  C  C619  1  0.41930000  0.05120000  0.14960000  1
  C  C620  1  0.34750000  0.98250000  0.30590000  1
  C  C621  1  0.47240000  0.20460000  0.35540000  1
  C  C622  1  0.17100000  0.91960000  0.27590000  1
  C  C623  1  0.33130000  0.94130000  0.29420000  1
  C  C624  1  0.91040000  0.76720000  0.80910000  1
  C  C625  1  0.98610000  0.78180000  0.83970000  1
  C  C626  1  0.19420000  0.05720000  0.75920000  1
  C  C627  1  0.08380000  0.84680000  0.85670000  1
  C  C628  1  0.04810000  0.82860000  0.83710000  1
  C  C629  1  0.98010000  0.78220000  0.79690000  1
  C  C630  1  0.15920000  0.98350000  0.78250000  1
  C  C631  1  0.08980000  0.90750000  0.66020000  1
  C  C632  1  0.07980000  0.97930000  0.68020000  1
  C  C633  1  0.18280000  0.98560000  0.74770000  1
  C  C634  1  0.86960000  0.75980000  0.79540000  1
  C  C635  1  0.08930000  0.96870000  0.72000000  1
  C  C636  1  0.07080000  0.95510000  0.60910000  1
  C  C637  1  0.21140000  0.09550000  0.74740000  1
  C  C638  1  0.15390000  0.93130000  0.83660000  1
  C  C639  1  0.13450000  0.89860000  0.85490000  1
  C  C640  1  0.10430000  0.87770000  0.83400000  1
  C  C641  1  0.09350000  0.88950000  0.79490000  1
  C  C642  1  0.11300000  0.92220000  0.77670000  1
  C  C643  1  0.14320000  0.94310000  0.79750000  1
  C  C644  1  0.10270000  0.93310000  0.73230000  1
  C  C645  1  0.91720000  0.76530000  0.85220000  1
  C  C646  1  0.95480000  0.77500000  0.86690000  1
  C  C647  1  0.94290000  0.77390000  0.78350000  1
  C  C648  1  0.10270000  0.90070000  0.70130000  1
  C  C649  1  0.31370000  0.12350000  0.76990000  1
  C  C650  1  0.20060000  0.02310000  0.73650000  1
  C  C651  1  0.08070000  0.94880000  0.64960000  1
  C  C652  1  0.15250000  0.01750000  0.80590000  1
  C  C653  1  0.02760000  0.79540000  0.85540000  1
  C  C654  1  0.32900000  0.08040000  0.77590000  1
  C  C655  1  0.16870000  0.05870000  0.79420000  1
  C  C656  1  0.19090000  0.41040000  0.73280000  1
  C  C657  1  0.16030000  0.48610000  0.71820000  1
  C  C658  1  0.24080000  0.69420000  0.44280000  1
  C  C659  1  0.14330000  0.58380000  0.65320000  1
  C  C660  1  0.16290000  0.54810000  0.67140000  1
  C  C661  1  0.20310000  0.48010000  0.71780000  1
  C  C662  1  0.21750000  0.65920000  0.51650000  1
  C  C663  1  0.33980000  0.58980000  0.59250000  1
  C  C664  1  0.31980000  0.57980000  0.52070000  1
  C  C665  1  0.25230000  0.68280000  0.51440000  1
  C  C666  1  0.20460000  0.36960000  0.74020000  1
  C  C667  1  0.28000000  0.58930000  0.53130000  1
  C  C668  1  0.39090000  0.57080000  0.54490000  1
  C  C669  1  0.25260000  0.71140000  0.40450000  1
  C  C670  1  0.16340000  0.65390000  0.56870000  1
  C  C671  1  0.14510000  0.63450000  0.60140000  1
  C  C672  1  0.16600000  0.60430000  0.62230000  1
  C  C673  1  0.20510000  0.59350000  0.61050000  1
  C  C674  1  0.22330000  0.61300000  0.57780000  1
  C  C675  1  0.20250000  0.64320000  0.55690000  1
  C  C676  1  0.26770000  0.60270000  0.56690000  1
  C  C677  1  0.14780000  0.41720000  0.73470000  1
  C  C678  1  0.13310000  0.45480000  0.72500000  1
  C  C679  1  0.21650000  0.44290000  0.72610000  1
  C  C680  1  0.29870000  0.60270000  0.59930000  1
  C  C681  1  0.23010000  0.81370000  0.37650000  1
  C  C682  1  0.26350000  0.70060000  0.47690000  1
  C  C683  1  0.35040000  0.58070000  0.55120000  1
  C  C684  1  0.19410000  0.65250000  0.48250000  1
  C  C685  1  0.14460000  0.52760000  0.70460000  1
  C  C686  1  0.22410000  0.82900000  0.41960000  1
  C  C687  1  0.20580000  0.66870000  0.44130000  1
  C  C688  1  0.69090000  0.08960000  0.26720000  1
  C  C689  1  0.66030000  0.01390000  0.28180000  1
  C  C690  1  0.74080000  0.80580000  0.55720000  1
  C  C691  1  0.64330000  0.91620000  0.34680000  1
  C  C692  1  0.66290000  0.95190000  0.32860000  1
  C  C693  1  0.70310000  0.01990000  0.28220000  1
  C  C694  1  0.71750000  0.84080000  0.48350000  1
  C  C695  1  0.83980000  0.91020000  0.40750000  1
  C  C696  1  0.81980000  0.92020000  0.47930000  1
  C  C697  1  0.75230000  0.81720000  0.48560000  1
  C  C698  1  0.70460000  0.13040000  0.25980000  1
  C  C699  1  0.78000000  0.91070000  0.46870000  1
  C  C700  1  0.89090000  0.92920000  0.45510000  1
  C  C701  1  0.75260000  0.78860000  0.59550000  1
  C  C702  1  0.66340000  0.84610000  0.43130000  1
  C  C703  1  0.64510000  0.86550000  0.39860000  1
  C  C704  1  0.66600000  0.89570000  0.37770000  1
  C  C705  1  0.70510000  0.90650000  0.38950000  1
  C  C706  1  0.72330000  0.88700000  0.42220000  1
  C  C707  1  0.70250000  0.85680000  0.44310000  1
  C  C708  1  0.76770000  0.89730000  0.43310000  1
  C  C709  1  0.64780000  0.08280000  0.26530000  1
  C  C710  1  0.63310000  0.04520000  0.27500000  1
  C  C711  1  0.71650000  0.05710000  0.27390000  1
  C  C712  1  0.79870000  0.89730000  0.40070000  1
  C  C713  1  0.73010000  0.68630000  0.62350000  1
  C  C714  1  0.76350000  0.79940000  0.52310000  1
  C  C715  1  0.85040000  0.91930000  0.44880000  1
  C  C716  1  0.69410000  0.84750000  0.51750000  1
  C  C717  1  0.64460000  0.97240000  0.29540000  1
  C  C718  1  0.72410000  0.67100000  0.58040000  1
  C  C719  1  0.70580000  0.83130000  0.55870000  1
  C  C720  1  0.30910000  0.58960000  0.23280000  1
  C  C721  1  0.33970000  0.51390000  0.21820000  1
  C  C722  1  0.25920000  0.30580000  0.94280000  1
  C  C723  1  0.35670000  0.41620000  0.15320000  1
  C  C724  1  0.33710000  0.45190000  0.17140000  1
  C  C725  1  0.29690000  0.51990000  0.21780000  1
  C  C726  1  0.28250000  0.34080000  0.01650000  1
  C  C727  1  0.16020000  0.41020000  0.09250000  1
  C  C728  1  0.18020000  0.42020000  0.02070000  1
  C  C729  1  0.24770000  0.31720000  0.01440000  1
  C  C730  1  0.29540000  0.63040000  0.24020000  1
  C  C731  1  0.22000000  0.41070000  0.03130000  1
  C  C732  1  0.10910000  0.42920000  0.04490000  1
  C  C733  1  0.24740000  0.28860000  0.90450000  1
  C  C734  1  0.33660000  0.34610000  0.06870000  1
  C  C735  1  0.35490000  0.36550000  0.10140000  1
  C  C736  1  0.33400000  0.39570000  0.12230000  1
  C  C737  1  0.29490000  0.40650000  0.11050000  1
  C  C738  1  0.27670000  0.38700000  0.07780000  1
  C  C739  1  0.29750000  0.35680000  0.05690000  1
  C  C740  1  0.23230000  0.39730000  0.06690000  1
  C  C741  1  0.35220000  0.58280000  0.23470000  1
  C  C742  1  0.36690000  0.54520000  0.22500000  1
  C  C743  1  0.28350000  0.55710000  0.22610000  1
  C  C744  1  0.20130000  0.39730000  0.09930000  1
  C  C745  1  0.26990000  0.18630000  0.87650000  1
  C  C746  1  0.23650000  0.29940000  0.97690000  1
  C  C747  1  0.14960000  0.41930000  0.05120000  1
  C  C748  1  0.30590000  0.34750000  0.98250000  1
  C  C749  1  0.35540000  0.47240000  0.20460000  1
  C  C750  1  0.27590000  0.17100000  0.91960000  1
  C  C751  1  0.29420000  0.33130000  0.94130000  1
  C  C752  1  0.80910000  0.91040000  0.76720000  1
  C  C753  1  0.83970000  0.98610000  0.78180000  1
  C  C754  1  0.75920000  0.19420000  0.05720000  1
  C  C755  1  0.85670000  0.08380000  0.84680000  1
  C  C756  1  0.83710000  0.04810000  0.82860000  1
  C  C757  1  0.79690000  0.98010000  0.78220000  1
  C  C758  1  0.78250000  0.15920000  0.98350000  1
  C  C759  1  0.66020000  0.08980000  0.90750000  1
  C  C760  1  0.68020000  0.07980000  0.97930000  1
  C  C761  1  0.74770000  0.18280000  0.98560000  1
  C  C762  1  0.79540000  0.86960000  0.75980000  1
  C  C763  1  0.72000000  0.08930000  0.96870000  1
  C  C764  1  0.60910000  0.07080000  0.95510000  1
  C  C765  1  0.74740000  0.21140000  0.09550000  1
  C  C766  1  0.83660000  0.15390000  0.93130000  1
  C  C767  1  0.85490000  0.13450000  0.89860000  1
  C  C768  1  0.83400000  0.10430000  0.87770000  1
  C  C769  1  0.79490000  0.09350000  0.88950000  1
  C  C770  1  0.77670000  0.11300000  0.92220000  1
  C  C771  1  0.79750000  0.14320000  0.94310000  1
  C  C772  1  0.73230000  0.10270000  0.93310000  1
  C  C773  1  0.85220000  0.91720000  0.76530000  1
  C  C774  1  0.86690000  0.95480000  0.77500000  1
  C  C775  1  0.78350000  0.94290000  0.77390000  1
  C  C776  1  0.70130000  0.10270000  0.90070000  1
  C  C777  1  0.76990000  0.31370000  0.12350000  1
  C  C778  1  0.73650000  0.20060000  0.02310000  1
  C  C779  1  0.64960000  0.08070000  0.94880000  1
  C  C780  1  0.80590000  0.15250000  0.01750000  1
  C  C781  1  0.85540000  0.02760000  0.79540000  1
  C  C782  1  0.77590000  0.32900000  0.08040000  1
  C  C783  1  0.79420000  0.16870000  0.05870000  1
  C  C784  1  0.73280000  0.19090000  0.41040000  1
  C  C785  1  0.71820000  0.16030000  0.48610000  1
  C  C786  1  0.44280000  0.24080000  0.69420000  1
  C  C787  1  0.65320000  0.14330000  0.58380000  1
  C  C788  1  0.67140000  0.16290000  0.54810000  1
  C  C789  1  0.71780000  0.20310000  0.48010000  1
  C  C790  1  0.51650000  0.21750000  0.65920000  1
  C  C791  1  0.59250000  0.33980000  0.58980000  1
  C  C792  1  0.52070000  0.31980000  0.57980000  1
  C  C793  1  0.51440000  0.25230000  0.68280000  1
  C  C794  1  0.74020000  0.20460000  0.36960000  1
  C  C795  1  0.53130000  0.28000000  0.58930000  1
  C  C796  1  0.54490000  0.39090000  0.57080000  1
  C  C797  1  0.40450000  0.25260000  0.71140000  1
  C  C798  1  0.56870000  0.16340000  0.65390000  1
  C  C799  1  0.60140000  0.14510000  0.63450000  1
  C  C800  1  0.62230000  0.16600000  0.60430000  1
  C  C801  1  0.61050000  0.20510000  0.59350000  1
  C  C802  1  0.57780000  0.22330000  0.61300000  1
  C  C803  1  0.55690000  0.20250000  0.64320000  1
  C  C804  1  0.56690000  0.26770000  0.60270000  1
  C  C805  1  0.73470000  0.14780000  0.41720000  1
  C  C806  1  0.72500000  0.13310000  0.45480000  1
  C  C807  1  0.72610000  0.21650000  0.44290000  1
  C  C808  1  0.59930000  0.29870000  0.60270000  1
  C  C809  1  0.37650000  0.23010000  0.81370000  1
  C  C810  1  0.47690000  0.26350000  0.70060000  1
  C  C811  1  0.55120000  0.35040000  0.58070000  1
  C  C812  1  0.48250000  0.19410000  0.65250000  1
  C  C813  1  0.70460000  0.14460000  0.52760000  1
  C  C814  1  0.41960000  0.22410000  0.82900000  1
  C  C815  1  0.44130000  0.20580000  0.66870000  1
  C  C816  1  0.26720000  0.69090000  0.08960000  1
  C  C817  1  0.28180000  0.66030000  0.01390000  1
  C  C818  1  0.55720000  0.74080000  0.80580000  1
  C  C819  1  0.34680000  0.64330000  0.91620000  1
  C  C820  1  0.32860000  0.66290000  0.95190000  1
  C  C821  1  0.28220000  0.70310000  0.01990000  1
  C  C822  1  0.48350000  0.71750000  0.84080000  1
  C  C823  1  0.40750000  0.83980000  0.91020000  1
  C  C824  1  0.47930000  0.81980000  0.92020000  1
  C  C825  1  0.48560000  0.75230000  0.81720000  1
  C  C826  1  0.25980000  0.70460000  0.13040000  1
  C  C827  1  0.46870000  0.78000000  0.91070000  1
  C  C828  1  0.45510000  0.89090000  0.92920000  1
  C  C829  1  0.59550000  0.75260000  0.78860000  1
  C  C830  1  0.43130000  0.66340000  0.84610000  1
  C  C831  1  0.39860000  0.64510000  0.86550000  1
  C  C832  1  0.37770000  0.66600000  0.89570000  1
  C  C833  1  0.38950000  0.70510000  0.90650000  1
  C  C834  1  0.42220000  0.72330000  0.88700000  1
  C  C835  1  0.44310000  0.70250000  0.85680000  1
  C  C836  1  0.43310000  0.76770000  0.89730000  1
  C  C837  1  0.26530000  0.64780000  0.08280000  1
  C  C838  1  0.27500000  0.63310000  0.04520000  1
  C  C839  1  0.27390000  0.71650000  0.05710000  1
  C  C840  1  0.40070000  0.79870000  0.89730000  1
  C  C841  1  0.62350000  0.73010000  0.68630000  1
  C  C842  1  0.52310000  0.76350000  0.79940000  1
  C  C843  1  0.44880000  0.85040000  0.91930000  1
  C  C844  1  0.51750000  0.69410000  0.84750000  1
  C  C845  1  0.29540000  0.64460000  0.97240000  1
  C  C846  1  0.58040000  0.72410000  0.67100000  1
  C  C847  1  0.55870000  0.70580000  0.83130000  1
  C  C848  1  0.23280000  0.30910000  0.58960000  1
  C  C849  1  0.21820000  0.33970000  0.51390000  1
  C  C850  1  0.94280000  0.25920000  0.30580000  1
  C  C851  1  0.15320000  0.35670000  0.41620000  1
  C  C852  1  0.17140000  0.33710000  0.45190000  1
  C  C853  1  0.21780000  0.29690000  0.51990000  1
  C  C854  1  0.01650000  0.28250000  0.34080000  1
  C  C855  1  0.09250000  0.16020000  0.41020000  1
  C  C856  1  0.02070000  0.18020000  0.42020000  1
  C  C857  1  0.01440000  0.24770000  0.31720000  1
  C  C858  1  0.24020000  0.29540000  0.63040000  1
  C  C859  1  0.03130000  0.22000000  0.41070000  1
  C  C860  1  0.04490000  0.10910000  0.42920000  1
  C  C861  1  0.90450000  0.24740000  0.28860000  1
  C  C862  1  0.06870000  0.33660000  0.34610000  1
  C  C863  1  0.10140000  0.35490000  0.36550000  1
  C  C864  1  0.12230000  0.33400000  0.39570000  1
  C  C865  1  0.11050000  0.29490000  0.40650000  1
  C  C866  1  0.07780000  0.27670000  0.38700000  1
  C  C867  1  0.05690000  0.29750000  0.35680000  1
  C  C868  1  0.06690000  0.23230000  0.39730000  1
  C  C869  1  0.23470000  0.35220000  0.58280000  1
  C  C870  1  0.22500000  0.36690000  0.54520000  1
  C  C871  1  0.22610000  0.28350000  0.55710000  1
  C  C872  1  0.09930000  0.20130000  0.39730000  1
  C  C873  1  0.87650000  0.26990000  0.18630000  1
  C  C874  1  0.97690000  0.23650000  0.29940000  1
  C  C875  1  0.05120000  0.14960000  0.41930000  1
  C  C876  1  0.98250000  0.30590000  0.34750000  1
  C  C877  1  0.20460000  0.35540000  0.47240000  1
  C  C878  1  0.91960000  0.27590000  0.17100000  1
  C  C879  1  0.94130000  0.29420000  0.33130000  1
  C  C880  1  0.76720000  0.80910000  0.91040000  1
  C  C881  1  0.78180000  0.83970000  0.98610000  1
  C  C882  1  0.05720000  0.75920000  0.19420000  1
  C  C883  1  0.84680000  0.85670000  0.08380000  1
  C  C884  1  0.82860000  0.83710000  0.04810000  1
  C  C885  1  0.78220000  0.79690000  0.98010000  1
  C  C886  1  0.98350000  0.78250000  0.15920000  1
  C  C887  1  0.90750000  0.66020000  0.08980000  1
  C  C888  1  0.97930000  0.68020000  0.07980000  1
  C  C889  1  0.98560000  0.74770000  0.18280000  1
  C  C890  1  0.75980000  0.79540000  0.86960000  1
  C  C891  1  0.96870000  0.72000000  0.08930000  1
  C  C892  1  0.95510000  0.60910000  0.07080000  1
  C  C893  1  0.09550000  0.74740000  0.21140000  1
  C  C894  1  0.93130000  0.83660000  0.15390000  1
  C  C895  1  0.89860000  0.85490000  0.13450000  1
  C  C896  1  0.87770000  0.83400000  0.10430000  1
  C  C897  1  0.88950000  0.79490000  0.09350000  1
  C  C898  1  0.92220000  0.77670000  0.11300000  1
  C  C899  1  0.94310000  0.79750000  0.14320000  1
  C  C900  1  0.93310000  0.73230000  0.10270000  1
  C  C901  1  0.76530000  0.85220000  0.91720000  1
  C  C902  1  0.77500000  0.86690000  0.95480000  1
  C  C903  1  0.77390000  0.78350000  0.94290000  1
  C  C904  1  0.90070000  0.70130000  0.10270000  1
  C  C905  1  0.12350000  0.76990000  0.31370000  1
  C  C906  1  0.02310000  0.73650000  0.20060000  1
  C  C907  1  0.94880000  0.64960000  0.08070000  1
  C  C908  1  0.01750000  0.80590000  0.15250000  1
  C  C909  1  0.79540000  0.85540000  0.02760000  1
  C  C910  1  0.08040000  0.77590000  0.32900000  1
  C  C911  1  0.05870000  0.79420000  0.16870000  1
  C  C912  1  0.98280000  0.16040000  0.55910000  1
  C  C913  1  0.96820000  0.23610000  0.58970000  1
  C  C914  1  0.69280000  0.44420000  0.50920000  1
  C  C915  1  0.90320000  0.33380000  0.60670000  1
  C  C916  1  0.92140000  0.29810000  0.58710000  1
  C  C917  1  0.96780000  0.23010000  0.54690000  1
  C  C918  1  0.76650000  0.40920000  0.53250000  1
  C  C919  1  0.84250000  0.33980000  0.41020000  1
  C  C920  1  0.77070000  0.32980000  0.43020000  1
  C  C921  1  0.76440000  0.43280000  0.49770000  1
  C  C922  1  0.99020000  0.11960000  0.54540000  1
  C  C923  1  0.78130000  0.33930000  0.47000000  1
  C  C924  1  0.79490000  0.32080000  0.35910000  1
  C  C925  1  0.65450000  0.46140000  0.49740000  1
  C  C926  1  0.81870000  0.40390000  0.58660000  1
  C  C927  1  0.85140000  0.38450000  0.60490000  1
  C  C928  1  0.87230000  0.35430000  0.58400000  1
  C  C929  1  0.86050000  0.34350000  0.54490000  1
  C  C930  1  0.82780000  0.36300000  0.52670000  1
  C  C931  1  0.80690000  0.39320000  0.54750000  1
  C  C932  1  0.81690000  0.35270000  0.48230000  1
  C  C933  1  0.98470000  0.16720000  0.60220000  1
  C  C934  1  0.97500000  0.20480000  0.61690000  1
  C  C935  1  0.97610000  0.19290000  0.53350000  1
  C  C936  1  0.84930000  0.35270000  0.45130000  1
  C  C937  1  0.62650000  0.56370000  0.51990000  1
  C  C938  1  0.72690000  0.45060000  0.48650000  1
  C  C939  1  0.80120000  0.33070000  0.39960000  1
  C  C940  1  0.73250000  0.40250000  0.55590000  1
  C  C941  1  0.95460000  0.27760000  0.60540000  1
  C  C942  1  0.66960000  0.57900000  0.52590000  1
  C  C943  1  0.69130000  0.41870000  0.54420000  1
  C  C944  1  0.51720000  0.83960000  0.05910000  1
  C  C945  1  0.53180000  0.76390000  0.08970000  1
  C  C946  1  0.80720000  0.55580000  0.00920000  1
  C  C947  1  0.59680000  0.66620000  0.10670000  1
  C  C948  1  0.57860000  0.70190000  0.08710000  1
  C  C949  1  0.53220000  0.76990000  0.04690000  1
  C  C950  1  0.73350000  0.59080000  0.03250000  1
  C  C951  1  0.65750000  0.66020000  0.91020000  1
  C  C952  1  0.72930000  0.67020000  0.93020000  1
  C  C953  1  0.73560000  0.56720000  0.99770000  1
  C  C954  1  0.50980000  0.88040000  0.04540000  1
  C  C955  1  0.71870000  0.66070000  0.97000000  1
  C  C956  1  0.70510000  0.67920000  0.85910000  1
  C  C957  1  0.84550000  0.53860000  0.99740000  1
  C  C958  1  0.68130000  0.59610000  0.08660000  1
  C  C959  1  0.64860000  0.61550000  0.10490000  1
  C  C960  1  0.62770000  0.64570000  0.08400000  1
  C  C961  1  0.63950000  0.65650000  0.04490000  1
  C  C962  1  0.67220000  0.63700000  0.02670000  1
  C  C963  1  0.69310000  0.60680000  0.04750000  1
  C  C964  1  0.68310000  0.64730000  0.98230000  1
  C  C965  1  0.51530000  0.83280000  0.10220000  1
  C  C966  1  0.52500000  0.79520000  0.11690000  1
  C  C967  1  0.52390000  0.80710000  0.03350000  1
  C  C968  1  0.65070000  0.64730000  0.95130000  1
  C  C969  1  0.87350000  0.43630000  0.01990000  1
  C  C970  1  0.77310000  0.54940000  0.98650000  1
  C  C971  1  0.69880000  0.66930000  0.89960000  1
  C  C972  1  0.76750000  0.59750000  0.05590000  1
  C  C973  1  0.54540000  0.72240000  0.10540000  1
  C  C974  1  0.83040000  0.42100000  0.02590000  1
  C  C975  1  0.80870000  0.58130000  0.04420000  1
  C  C976  1  0.48280000  0.33960000  0.44090000  1
  C  C977  1  0.46820000  0.26390000  0.41030000  1
  C  C978  1  0.19280000  0.05580000  0.49080000  1
  C  C979  1  0.40320000  0.16620000  0.39330000  1
  C  C980  1  0.42140000  0.20190000  0.41290000  1
  C  C981  1  0.46780000  0.26990000  0.45310000  1
  C  C982  1  0.26650000  0.09080000  0.46750000  1
  C  C983  1  0.34250000  0.16020000  0.58980000  1
  C  C984  1  0.27070000  0.17020000  0.56980000  1
  C  C985  1  0.26440000  0.06720000  0.50230000  1
  C  C986  1  0.49020000  0.38040000  0.45460000  1
  C  C987  1  0.28130000  0.16070000  0.53000000  1
  C  C988  1  0.29490000  0.17920000  0.64090000  1
  C  C989  1  0.15450000  0.03860000  0.50260000  1
  C  C990  1  0.31870000  0.09610000  0.41340000  1
  C  C991  1  0.35140000  0.11550000  0.39510000  1
  C  C992  1  0.37230000  0.14570000  0.41600000  1
  C  C993  1  0.36050000  0.15650000  0.45510000  1
  C  C994  1  0.32780000  0.13700000  0.47330000  1
  C  C995  1  0.30690000  0.10680000  0.45250000  1
  C  C996  1  0.31690000  0.14730000  0.51770000  1
  C  C997  1  0.48470000  0.33280000  0.39780000  1
  C  C998  1  0.47500000  0.29520000  0.38310000  1
  C  C999  1  0.47610000  0.30710000  0.46650000  1
  C  C1000  1  0.34930000  0.14730000  0.54870000  1
  C  C1001  1  0.12650000  0.93630000  0.48010000  1
  C  C1002  1  0.22690000  0.04940000  0.51350000  1
  C  C1003  1  0.30120000  0.16930000  0.60040000  1
  C  C1004  1  0.23250000  0.09750000  0.44410000  1
  C  C1005  1  0.45460000  0.22240000  0.39460000  1
  C  C1006  1  0.16960000  0.92100000  0.47410000  1
  C  C1007  1  0.19130000  0.08130000  0.45580000  1
  C  C1008  1  0.01720000  0.66040000  0.94090000  1
  C  C1009  1  0.03180000  0.73610000  0.91030000  1
  C  C1010  1  0.30720000  0.94420000  0.99080000  1
  C  C1011  1  0.09680000  0.83380000  0.89330000  1
  C  C1012  1  0.07860000  0.79810000  0.91290000  1
  C  C1013  1  0.03220000  0.73010000  0.95310000  1
  C  C1014  1  0.23350000  0.90920000  0.96750000  1
  C  C1015  1  0.15750000  0.83980000  0.08980000  1
  C  C1016  1  0.22930000  0.82980000  0.06980000  1
  C  C1017  1  0.23560000  0.93280000  0.00230000  1
  C  C1018  1  0.00980000  0.61960000  0.95460000  1
  C  C1019  1  0.21870000  0.83930000  0.03000000  1
  C  C1020  1  0.20510000  0.82080000  0.14090000  1
  C  C1021  1  0.34550000  0.96140000  0.00260000  1
  C  C1022  1  0.18130000  0.90390000  0.91340000  1
  C  C1023  1  0.14860000  0.88450000  0.89510000  1
  C  C1024  1  0.12770000  0.85430000  0.91600000  1
  C  C1025  1  0.13950000  0.84350000  0.95510000  1
  C  C1026  1  0.17220000  0.86300000  0.97330000  1
  C  C1027  1  0.19310000  0.89320000  0.95250000  1
  C  C1028  1  0.18310000  0.85270000  0.01770000  1
  C  C1029  1  0.01530000  0.66720000  0.89780000  1
  C  C1030  1  0.02500000  0.70480000  0.88310000  1
  C  C1031  1  0.02390000  0.69290000  0.96650000  1
  C  C1032  1  0.15070000  0.85270000  0.04870000  1
  C  C1033  1  0.37350000  0.06370000  0.98010000  1
  C  C1034  1  0.27310000  0.95060000  0.01350000  1
  C  C1035  1  0.19880000  0.83070000  0.10040000  1
  C  C1036  1  0.26750000  0.90250000  0.94410000  1
  C  C1037  1  0.04540000  0.77760000  0.89460000  1
  C  C1038  1  0.33040000  0.07900000  0.97410000  1
  C  C1039  1  0.30870000  0.91870000  0.95580000  1
  C  C1040  1  0.66040000  0.94090000  0.01720000  1
  C  C1041  1  0.73610000  0.91030000  0.03180000  1
  C  C1042  1  0.94420000  0.99080000  0.30720000  1
  C  C1043  1  0.83380000  0.89330000  0.09680000  1
  C  C1044  1  0.79810000  0.91290000  0.07860000  1
  C  C1045  1  0.73010000  0.95310000  0.03220000  1
  C  C1046  1  0.90920000  0.96750000  0.23350000  1
  C  C1047  1  0.83980000  0.08980000  0.15750000  1
  C  C1048  1  0.82980000  0.06980000  0.22930000  1
  C  C1049  1  0.93280000  0.00230000  0.23560000  1
  C  C1050  1  0.61960000  0.95460000  0.00980000  1
  C  C1051  1  0.83930000  0.03000000  0.21870000  1
  C  C1052  1  0.82080000  0.14090000  0.20510000  1
  C  C1053  1  0.96140000  0.00260000  0.34550000  1
  C  C1054  1  0.90390000  0.91340000  0.18130000  1
  C  C1055  1  0.88450000  0.89510000  0.14860000  1
  C  C1056  1  0.85430000  0.91600000  0.12770000  1
  C  C1057  1  0.84350000  0.95510000  0.13950000  1
  C  C1058  1  0.86300000  0.97330000  0.17220000  1
  C  C1059  1  0.89320000  0.95250000  0.19310000  1
  C  C1060  1  0.85270000  0.01770000  0.18310000  1
  C  C1061  1  0.66720000  0.89780000  0.01530000  1
  C  C1062  1  0.70480000  0.88310000  0.02500000  1
  C  C1063  1  0.69290000  0.96650000  0.02390000  1
  C  C1064  1  0.85270000  0.04870000  0.15070000  1
  C  C1065  1  0.06370000  0.98010000  0.37350000  1
  C  C1066  1  0.95060000  0.01350000  0.27310000  1
  C  C1067  1  0.83070000  0.10040000  0.19880000  1
  C  C1068  1  0.90250000  0.94410000  0.26750000  1
  C  C1069  1  0.77760000  0.89460000  0.04540000  1
  C  C1070  1  0.07900000  0.97410000  0.33040000  1
  C  C1071  1  0.91870000  0.95580000  0.30870000  1
  C  C1072  1  0.33960000  0.44090000  0.48280000  1
  C  C1073  1  0.26390000  0.41030000  0.46820000  1
  C  C1074  1  0.05580000  0.49080000  0.19280000  1
  C  C1075  1  0.16620000  0.39330000  0.40320000  1
  C  C1076  1  0.20190000  0.41290000  0.42140000  1
  C  C1077  1  0.26990000  0.45310000  0.46780000  1
  C  C1078  1  0.09080000  0.46750000  0.26650000  1
  C  C1079  1  0.16020000  0.58980000  0.34250000  1
  C  C1080  1  0.17020000  0.56980000  0.27070000  1
  C  C1081  1  0.06720000  0.50230000  0.26440000  1
  C  C1082  1  0.38040000  0.45460000  0.49020000  1
  C  C1083  1  0.16070000  0.53000000  0.28130000  1
  C  C1084  1  0.17920000  0.64090000  0.29490000  1
  C  C1085  1  0.03860000  0.50260000  0.15450000  1
  C  C1086  1  0.09610000  0.41340000  0.31870000  1
  C  C1087  1  0.11550000  0.39510000  0.35140000  1
  C  C1088  1  0.14570000  0.41600000  0.37230000  1
  C  C1089  1  0.15650000  0.45510000  0.36050000  1
  C  C1090  1  0.13700000  0.47330000  0.32780000  1
  C  C1091  1  0.10680000  0.45250000  0.30690000  1
  C  C1092  1  0.14730000  0.51770000  0.31690000  1
  C  C1093  1  0.33280000  0.39780000  0.48470000  1
  C  C1094  1  0.29520000  0.38310000  0.47500000  1
  C  C1095  1  0.30710000  0.46650000  0.47610000  1
  C  C1096  1  0.14730000  0.54870000  0.34930000  1
  C  C1097  1  0.93630000  0.48010000  0.12650000  1
  C  C1098  1  0.04940000  0.51350000  0.22690000  1
  C  C1099  1  0.16930000  0.60040000  0.30120000  1
  C  C1100  1  0.09750000  0.44410000  0.23250000  1
  C  C1101  1  0.22240000  0.39460000  0.45460000  1
  C  C1102  1  0.92100000  0.47410000  0.16960000  1
  C  C1103  1  0.08130000  0.45580000  0.19130000  1
  C  C1104  1  0.83960000  0.05910000  0.51720000  1
  C  C1105  1  0.76390000  0.08970000  0.53180000  1
  C  C1106  1  0.55580000  0.00920000  0.80720000  1
  C  C1107  1  0.66620000  0.10670000  0.59680000  1
  C  C1108  1  0.70190000  0.08710000  0.57860000  1
  C  C1109  1  0.76990000  0.04690000  0.53220000  1
  C  C1110  1  0.59080000  0.03250000  0.73350000  1
  C  C1111  1  0.66020000  0.91020000  0.65750000  1
  C  C1112  1  0.67020000  0.93020000  0.72930000  1
  C  C1113  1  0.56720000  0.99770000  0.73560000  1
  C  C1114  1  0.88040000  0.04540000  0.50980000  1
  C  C1115  1  0.66070000  0.97000000  0.71870000  1
  C  C1116  1  0.67920000  0.85910000  0.70510000  1
  C  C1117  1  0.53860000  0.99740000  0.84550000  1
  C  C1118  1  0.59610000  0.08660000  0.68130000  1
  C  C1119  1  0.61550000  0.10490000  0.64860000  1
  C  C1120  1  0.64570000  0.08400000  0.62770000  1
  C  C1121  1  0.65650000  0.04490000  0.63950000  1
  C  C1122  1  0.63700000  0.02670000  0.67220000  1
  C  C1123  1  0.60680000  0.04750000  0.69310000  1
  C  C1124  1  0.64730000  0.98230000  0.68310000  1
  C  C1125  1  0.83280000  0.10220000  0.51530000  1
  C  C1126  1  0.79520000  0.11690000  0.52500000  1
  C  C1127  1  0.80710000  0.03350000  0.52390000  1
  C  C1128  1  0.64730000  0.95130000  0.65070000  1
  C  C1129  1  0.43630000  0.01990000  0.87350000  1
  C  C1130  1  0.54940000  0.98650000  0.77310000  1
  C  C1131  1  0.66930000  0.89960000  0.69880000  1
  C  C1132  1  0.59750000  0.05590000  0.76750000  1
  C  C1133  1  0.72240000  0.10540000  0.54540000  1
  C  C1134  1  0.42100000  0.02590000  0.83040000  1
  C  C1135  1  0.58130000  0.04420000  0.80870000  1
  C  C1136  1  0.16040000  0.55910000  0.98280000  1
  C  C1137  1  0.23610000  0.58970000  0.96820000  1
  C  C1138  1  0.44420000  0.50920000  0.69280000  1
  C  C1139  1  0.33380000  0.60670000  0.90320000  1
  C  C1140  1  0.29810000  0.58710000  0.92140000  1
  C  C1141  1  0.23010000  0.54690000  0.96780000  1
  C  C1142  1  0.40920000  0.53250000  0.76650000  1
  C  C1143  1  0.33980000  0.41020000  0.84250000  1
  C  C1144  1  0.32980000  0.43020000  0.77070000  1
  C  C1145  1  0.43280000  0.49770000  0.76440000  1
  C  C1146  1  0.11960000  0.54540000  0.99020000  1
  C  C1147  1  0.33930000  0.47000000  0.78130000  1
  C  C1148  1  0.32080000  0.35910000  0.79490000  1
  C  C1149  1  0.46140000  0.49740000  0.65450000  1
  C  C1150  1  0.40390000  0.58660000  0.81870000  1
  C  C1151  1  0.38450000  0.60490000  0.85140000  1
  C  C1152  1  0.35430000  0.58400000  0.87230000  1
  C  C1153  1  0.34350000  0.54490000  0.86050000  1
  C  C1154  1  0.36300000  0.52670000  0.82780000  1
  C  C1155  1  0.39320000  0.54750000  0.80690000  1
  C  C1156  1  0.35270000  0.48230000  0.81690000  1
  C  C1157  1  0.16720000  0.60220000  0.98470000  1
  C  C1158  1  0.20480000  0.61690000  0.97500000  1
  C  C1159  1  0.19290000  0.53350000  0.97610000  1
  C  C1160  1  0.35270000  0.45130000  0.84930000  1
  C  C1161  1  0.56370000  0.51990000  0.62650000  1
  C  C1162  1  0.45060000  0.48650000  0.72690000  1
  C  C1163  1  0.33070000  0.39960000  0.80120000  1
  C  C1164  1  0.40250000  0.55590000  0.73250000  1
  C  C1165  1  0.27760000  0.60540000  0.95460000  1
  C  C1166  1  0.57900000  0.52590000  0.66960000  1
  C  C1167  1  0.41870000  0.54420000  0.69130000  1
  C  C1168  1  0.44090000  0.48280000  0.33960000  1
  C  C1169  1  0.41030000  0.46820000  0.26390000  1
  C  C1170  1  0.49080000  0.19280000  0.05580000  1
  C  C1171  1  0.39330000  0.40320000  0.16620000  1
  C  C1172  1  0.41290000  0.42140000  0.20190000  1
  C  C1173  1  0.45310000  0.46780000  0.26990000  1
  C  C1174  1  0.46750000  0.26650000  0.09080000  1
  C  C1175  1  0.58980000  0.34250000  0.16020000  1
  C  C1176  1  0.56980000  0.27070000  0.17020000  1
  C  C1177  1  0.50230000  0.26440000  0.06720000  1
  C  C1178  1  0.45460000  0.49020000  0.38040000  1
  C  C1179  1  0.53000000  0.28130000  0.16070000  1
  C  C1180  1  0.64090000  0.29490000  0.17920000  1
  C  C1181  1  0.50260000  0.15450000  0.03860000  1
  C  C1182  1  0.41340000  0.31870000  0.09610000  1
  C  C1183  1  0.39510000  0.35140000  0.11550000  1
  C  C1184  1  0.41600000  0.37230000  0.14570000  1
  C  C1185  1  0.45510000  0.36050000  0.15650000  1
  C  C1186  1  0.47330000  0.32780000  0.13700000  1
  C  C1187  1  0.45250000  0.30690000  0.10680000  1
  C  C1188  1  0.51770000  0.31690000  0.14730000  1
  C  C1189  1  0.39780000  0.48470000  0.33280000  1
  C  C1190  1  0.38310000  0.47500000  0.29520000  1
  C  C1191  1  0.46650000  0.47610000  0.30710000  1
  C  C1192  1  0.54870000  0.34930000  0.14730000  1
  C  C1193  1  0.48010000  0.12650000  0.93630000  1
  C  C1194  1  0.51350000  0.22690000  0.04940000  1
  C  C1195  1  0.60040000  0.30120000  0.16930000  1
  C  C1196  1  0.44410000  0.23250000  0.09750000  1
  C  C1197  1  0.39460000  0.45460000  0.22240000  1
  C  C1198  1  0.47410000  0.16960000  0.92100000  1
  C  C1199  1  0.45580000  0.19130000  0.08130000  1
  C  C1200  1  0.94090000  0.01720000  0.66040000  1
  C  C1201  1  0.91030000  0.03180000  0.73610000  1
  C  C1202  1  0.99080000  0.30720000  0.94420000  1
  C  C1203  1  0.89330000  0.09680000  0.83380000  1
  C  C1204  1  0.91290000  0.07860000  0.79810000  1
  C  C1205  1  0.95310000  0.03220000  0.73010000  1
  C  C1206  1  0.96750000  0.23350000  0.90920000  1
  C  C1207  1  0.08980000  0.15750000  0.83980000  1
  C  C1208  1  0.06980000  0.22930000  0.82980000  1
  C  C1209  1  0.00230000  0.23560000  0.93280000  1
  C  C1210  1  0.95460000  0.00980000  0.61960000  1
  C  C1211  1  0.03000000  0.21870000  0.83930000  1
  C  C1212  1  0.14090000  0.20510000  0.82080000  1
  C  C1213  1  0.00260000  0.34550000  0.96140000  1
  C  C1214  1  0.91340000  0.18130000  0.90390000  1
  C  C1215  1  0.89510000  0.14860000  0.88450000  1
  C  C1216  1  0.91600000  0.12770000  0.85430000  1
  C  C1217  1  0.95510000  0.13950000  0.84350000  1
  C  C1218  1  0.97330000  0.17220000  0.86300000  1
  C  C1219  1  0.95250000  0.19310000  0.89320000  1
  C  C1220  1  0.01770000  0.18310000  0.85270000  1
  C  C1221  1  0.89780000  0.01530000  0.66720000  1
  C  C1222  1  0.88310000  0.02500000  0.70480000  1
  C  C1223  1  0.96650000  0.02390000  0.69290000  1
  C  C1224  1  0.04870000  0.15070000  0.85270000  1
  C  C1225  1  0.98010000  0.37350000  0.06370000  1
  C  C1226  1  0.01350000  0.27310000  0.95060000  1
  C  C1227  1  0.10040000  0.19880000  0.83070000  1
  C  C1228  1  0.94410000  0.26750000  0.90250000  1
  C  C1229  1  0.89460000  0.04540000  0.77760000  1
  C  C1230  1  0.97410000  0.33040000  0.07900000  1
  C  C1231  1  0.95580000  0.30870000  0.91870000  1
  C  C1232  1  0.55910000  0.98280000  0.16040000  1
  C  C1233  1  0.58970000  0.96820000  0.23610000  1
  C  C1234  1  0.50920000  0.69280000  0.44420000  1
  C  C1235  1  0.60670000  0.90320000  0.33380000  1
  C  C1236  1  0.58710000  0.92140000  0.29810000  1
  C  C1237  1  0.54690000  0.96780000  0.23010000  1
  C  C1238  1  0.53250000  0.76650000  0.40920000  1
  C  C1239  1  0.41020000  0.84250000  0.33980000  1
  C  C1240  1  0.43020000  0.77070000  0.32980000  1
  C  C1241  1  0.49770000  0.76440000  0.43280000  1
  C  C1242  1  0.54540000  0.99020000  0.11960000  1
  C  C1243  1  0.47000000  0.78130000  0.33930000  1
  C  C1244  1  0.35910000  0.79490000  0.32080000  1
  C  C1245  1  0.49740000  0.65450000  0.46140000  1
  C  C1246  1  0.58660000  0.81870000  0.40390000  1
  C  C1247  1  0.60490000  0.85140000  0.38450000  1
  C  C1248  1  0.58400000  0.87230000  0.35430000  1
  C  C1249  1  0.54490000  0.86050000  0.34350000  1
  C  C1250  1  0.52670000  0.82780000  0.36300000  1
  C  C1251  1  0.54750000  0.80690000  0.39320000  1
  C  C1252  1  0.48230000  0.81690000  0.35270000  1
  C  C1253  1  0.60220000  0.98470000  0.16720000  1
  C  C1254  1  0.61690000  0.97500000  0.20480000  1
  C  C1255  1  0.53350000  0.97610000  0.19290000  1
  C  C1256  1  0.45130000  0.84930000  0.35270000  1
  C  C1257  1  0.51990000  0.62650000  0.56370000  1
  C  C1258  1  0.48650000  0.72690000  0.45060000  1
  C  C1259  1  0.39960000  0.80120000  0.33070000  1
  C  C1260  1  0.55590000  0.73250000  0.40250000  1
  C  C1261  1  0.60540000  0.95460000  0.27760000  1
  C  C1262  1  0.52590000  0.66960000  0.57900000  1
  C  C1263  1  0.54420000  0.69130000  0.41870000  1
  C  C1264  1  0.05910000  0.51720000  0.83960000  1
  C  C1265  1  0.08970000  0.53180000  0.76390000  1
  C  C1266  1  0.00920000  0.80720000  0.55580000  1
  C  C1267  1  0.10670000  0.59680000  0.66620000  1
  C  C1268  1  0.08710000  0.57860000  0.70190000  1
  C  C1269  1  0.04690000  0.53220000  0.76990000  1
  C  C1270  1  0.03250000  0.73350000  0.59080000  1
  C  C1271  1  0.91020000  0.65750000  0.66020000  1
  C  C1272  1  0.93020000  0.72930000  0.67020000  1
  C  C1273  1  0.99770000  0.73560000  0.56720000  1
  C  C1274  1  0.04540000  0.50980000  0.88040000  1
  C  C1275  1  0.97000000  0.71870000  0.66070000  1
  C  C1276  1  0.85910000  0.70510000  0.67920000  1
  C  C1277  1  0.99740000  0.84550000  0.53860000  1
  C  C1278  1  0.08660000  0.68130000  0.59610000  1
  C  C1279  1  0.10490000  0.64860000  0.61550000  1
  C  C1280  1  0.08400000  0.62770000  0.64570000  1
  C  C1281  1  0.04490000  0.63950000  0.65650000  1
  C  C1282  1  0.02670000  0.67220000  0.63700000  1
  C  C1283  1  0.04750000  0.69310000  0.60680000  1
  C  C1284  1  0.98230000  0.68310000  0.64730000  1
  C  C1285  1  0.10220000  0.51530000  0.83280000  1
  C  C1286  1  0.11690000  0.52500000  0.79520000  1
  C  C1287  1  0.03350000  0.52390000  0.80710000  1
  C  C1288  1  0.95130000  0.65070000  0.64730000  1
  C  C1289  1  0.01990000  0.87350000  0.43630000  1
  C  C1290  1  0.98650000  0.77310000  0.54940000  1
  C  C1291  1  0.89960000  0.69880000  0.66930000  1
  C  C1292  1  0.05590000  0.76750000  0.59750000  1
  C  C1293  1  0.10540000  0.54540000  0.72240000  1
  C  C1294  1  0.02590000  0.83040000  0.42100000  1
  C  C1295  1  0.04420000  0.80870000  0.58130000  1
  O  O1296  1  0.56130000  0.50630000  0.39780000  1
  O  O1297  1  0.57070000  0.56930000  0.41880000  1
  O  O1298  1  0.34330000  0.76070000  0.18440000  1
  O  O1299  1  0.36220000  0.72520000  0.23920000  1
  O  O1300  1  0.58390000  0.43550000  0.42960000  1
  O  O1301  1  0.83250000  0.35510000  0.25440000  1
  O  O1302  1  0.74030000  0.40140000  0.28220000  1
  O  O1303  1  0.70420000  0.37410000  0.22930000  1
  O  O1304  1  0.78130000  0.37150000  0.20730000  1
  O  O1305  1  0.57470000  0.50800000  0.47610000  1
  O  O1306  1  0.70290000  0.27740000  0.24500000  1
  O  O1307  1  0.93870000  0.49370000  0.89780000  1
  O  O1308  1  0.92930000  0.43070000  0.91880000  1
  O  O1309  1  0.15670000  0.23930000  0.68440000  1
  O  O1310  1  0.13780000  0.27480000  0.73920000  1
  O  O1311  1  0.91610000  0.56450000  0.92960000  1
  O  O1312  1  0.66750000  0.64490000  0.75440000  1
  O  O1313  1  0.75970000  0.59860000  0.78220000  1
  O  O1314  1  0.79580000  0.62590000  0.72930000  1
  O  O1315  1  0.71870000  0.62850000  0.70730000  1
  O  O1316  1  0.92530000  0.49200000  0.97610000  1
  O  O1317  1  0.79710000  0.72260000  0.74500000  1
  O  O1318  1  0.43870000  0.00630000  0.10220000  1
  O  O1319  1  0.42930000  0.06930000  0.08120000  1
  O  O1320  1  0.65670000  0.26070000  0.31560000  1
  O  O1321  1  0.63780000  0.22520000  0.26080000  1
  O  O1322  1  0.41610000  0.93550000  0.07040000  1
  O  O1323  1  0.16750000  0.85510000  0.24560000  1
  O  O1324  1  0.25970000  0.90140000  0.21780000  1
  O  O1325  1  0.29580000  0.87410000  0.27070000  1
  O  O1326  1  0.21870000  0.87150000  0.29270000  1
  O  O1327  1  0.42530000  0.00800000  0.02390000  1
  O  O1328  1  0.29710000  0.77740000  0.25500000  1
  O  O1329  1  0.06130000  0.99370000  0.60220000  1
  O  O1330  1  0.07070000  0.93070000  0.58120000  1
  O  O1331  1  0.84330000  0.73930000  0.81560000  1
  O  O1332  1  0.86220000  0.77480000  0.76080000  1
  O  O1333  1  0.08390000  0.06450000  0.57040000  1
  O  O1334  1  0.33250000  0.14490000  0.74560000  1
  O  O1335  1  0.24030000  0.09860000  0.71780000  1
  O  O1336  1  0.20420000  0.12590000  0.77070000  1
  O  O1337  1  0.28130000  0.12850000  0.79270000  1
  O  O1338  1  0.07470000  0.99200000  0.52390000  1
  O  O1339  1  0.20290000  0.22260000  0.75500000  1
  O  O1340  1  0.39780000  0.56130000  0.50630000  1
  O  O1341  1  0.41880000  0.57070000  0.56930000  1
  O  O1342  1  0.18440000  0.34330000  0.76070000  1
  O  O1343  1  0.23920000  0.36220000  0.72520000  1
  O  O1344  1  0.42960000  0.58390000  0.43550000  1
  O  O1345  1  0.25440000  0.83250000  0.35510000  1
  O  O1346  1  0.28220000  0.74030000  0.40140000  1
  O  O1347  1  0.22930000  0.70420000  0.37410000  1
  O  O1348  1  0.20730000  0.78130000  0.37150000  1
  O  O1349  1  0.47610000  0.57470000  0.50800000  1
  O  O1350  1  0.24500000  0.70290000  0.27740000  1
  O  O1351  1  0.89780000  0.93870000  0.49370000  1
  O  O1352  1  0.91880000  0.92930000  0.43070000  1
  O  O1353  1  0.68440000  0.15670000  0.23930000  1
  O  O1354  1  0.73920000  0.13780000  0.27480000  1
  O  O1355  1  0.92960000  0.91610000  0.56450000  1
  O  O1356  1  0.75440000  0.66750000  0.64490000  1
  O  O1357  1  0.78220000  0.75970000  0.59860000  1
  O  O1358  1  0.72930000  0.79580000  0.62590000  1
  O  O1359  1  0.70730000  0.71870000  0.62850000  1
  O  O1360  1  0.97610000  0.92530000  0.49200000  1
  O  O1361  1  0.74500000  0.79710000  0.72260000  1
  O  O1362  1  0.10220000  0.43870000  0.00630000  1
  O  O1363  1  0.08120000  0.42930000  0.06930000  1
  O  O1364  1  0.31560000  0.65670000  0.26070000  1
  O  O1365  1  0.26080000  0.63780000  0.22520000  1
  O  O1366  1  0.07040000  0.41610000  0.93550000  1
  O  O1367  1  0.24560000  0.16750000  0.85510000  1
  O  O1368  1  0.21780000  0.25970000  0.90140000  1
  O  O1369  1  0.27070000  0.29580000  0.87410000  1
  O  O1370  1  0.29270000  0.21870000  0.87150000  1
  O  O1371  1  0.02390000  0.42530000  0.00800000  1
  O  O1372  1  0.25500000  0.29710000  0.77740000  1
  O  O1373  1  0.60220000  0.06130000  0.99370000  1
  O  O1374  1  0.58120000  0.07070000  0.93070000  1
  O  O1375  1  0.81560000  0.84330000  0.73930000  1
  O  O1376  1  0.76080000  0.86220000  0.77480000  1
  O  O1377  1  0.57040000  0.08390000  0.06450000  1
  O  O1378  1  0.74560000  0.33250000  0.14490000  1
  O  O1379  1  0.71780000  0.24030000  0.09860000  1
  O  O1380  1  0.77070000  0.20420000  0.12590000  1
  O  O1381  1  0.79270000  0.28130000  0.12850000  1
  O  O1382  1  0.52390000  0.07470000  0.99200000  1
  O  O1383  1  0.75500000  0.20290000  0.22260000  1
  O  O1384  1  0.50630000  0.39780000  0.56130000  1
  O  O1385  1  0.56930000  0.41880000  0.57070000  1
  O  O1386  1  0.76070000  0.18440000  0.34330000  1
  O  O1387  1  0.72520000  0.23920000  0.36220000  1
  O  O1388  1  0.43550000  0.42960000  0.58390000  1
  O  O1389  1  0.35510000  0.25440000  0.83250000  1
  O  O1390  1  0.40140000  0.28220000  0.74030000  1
  O  O1391  1  0.37410000  0.22930000  0.70420000  1
  O  O1392  1  0.37150000  0.20730000  0.78130000  1
  O  O1393  1  0.50800000  0.47610000  0.57470000  1
  O  O1394  1  0.27740000  0.24500000  0.70290000  1
  O  O1395  1  0.49370000  0.89780000  0.93870000  1
  O  O1396  1  0.43070000  0.91880000  0.92930000  1
  O  O1397  1  0.23930000  0.68440000  0.15670000  1
  O  O1398  1  0.27480000  0.73920000  0.13780000  1
  O  O1399  1  0.56450000  0.92960000  0.91610000  1
  O  O1400  1  0.64490000  0.75440000  0.66750000  1
  O  O1401  1  0.59860000  0.78220000  0.75970000  1
  O  O1402  1  0.62590000  0.72930000  0.79580000  1
  O  O1403  1  0.62850000  0.70730000  0.71870000  1
  O  O1404  1  0.49200000  0.97610000  0.92530000  1
  O  O1405  1  0.72260000  0.74500000  0.79710000  1
  O  O1406  1  0.00630000  0.10220000  0.43870000  1
  O  O1407  1  0.06930000  0.08120000  0.42930000  1
  O  O1408  1  0.26070000  0.31560000  0.65670000  1
  O  O1409  1  0.22520000  0.26080000  0.63780000  1
  O  O1410  1  0.93550000  0.07040000  0.41610000  1
  O  O1411  1  0.85510000  0.24560000  0.16750000  1
  O  O1412  1  0.90140000  0.21780000  0.25970000  1
  O  O1413  1  0.87410000  0.27070000  0.29580000  1
  O  O1414  1  0.87150000  0.29270000  0.21870000  1
  O  O1415  1  0.00800000  0.02390000  0.42530000  1
  O  O1416  1  0.77740000  0.25500000  0.29710000  1
  O  O1417  1  0.99370000  0.60220000  0.06130000  1
  O  O1418  1  0.93070000  0.58120000  0.07070000  1
  O  O1419  1  0.73930000  0.81560000  0.84330000  1
  O  O1420  1  0.77480000  0.76080000  0.86220000  1
  O  O1421  1  0.06450000  0.57040000  0.08390000  1
  O  O1422  1  0.14490000  0.74560000  0.33250000  1
  O  O1423  1  0.09860000  0.71780000  0.24030000  1
  O  O1424  1  0.12590000  0.77070000  0.20420000  1
  O  O1425  1  0.12850000  0.79270000  0.28130000  1
  O  O1426  1  0.99200000  0.52390000  0.07470000  1
  O  O1427  1  0.22260000  0.75500000  0.20290000  1
  O  O1428  1  0.75630000  0.31130000  0.35220000  1
  O  O1429  1  0.81930000  0.32070000  0.33120000  1
  O  O1430  1  0.01070000  0.09330000  0.56560000  1
  O  O1431  1  0.97520000  0.11220000  0.51080000  1
  O  O1432  1  0.68550000  0.33390000  0.32040000  1
  O  O1433  1  0.60510000  0.58250000  0.49560000  1
  O  O1434  1  0.65140000  0.49030000  0.46780000  1
  O  O1435  1  0.62410000  0.45420000  0.52070000  1
  O  O1436  1  0.62150000  0.53130000  0.54270000  1
  O  O1437  1  0.75800000  0.32470000  0.27390000  1
  O  O1438  1  0.52740000  0.45290000  0.50500000  1
  O  O1439  1  0.74370000  0.68870000  0.85220000  1
  O  O1440  1  0.68070000  0.67930000  0.83120000  1
  O  O1441  1  0.48930000  0.90670000  0.06560000  1
  O  O1442  1  0.52480000  0.88780000  0.01080000  1
  O  O1443  1  0.81450000  0.66610000  0.82040000  1
  O  O1444  1  0.89490000  0.41750000  0.99560000  1
  O  O1445  1  0.84860000  0.50970000  0.96780000  1
  O  O1446  1  0.87590000  0.54580000  0.02070000  1
  O  O1447  1  0.87850000  0.46870000  0.04270000  1
  O  O1448  1  0.74200000  0.67530000  0.77390000  1
  O  O1449  1  0.97260000  0.54710000  0.00500000  1
  O  O1450  1  0.25630000  0.18870000  0.64780000  1
  O  O1451  1  0.31930000  0.17930000  0.66880000  1
  O  O1452  1  0.51070000  0.40670000  0.43440000  1
  O  O1453  1  0.47520000  0.38780000  0.48920000  1
  O  O1454  1  0.18550000  0.16610000  0.67960000  1
  O  O1455  1  0.10510000  0.91750000  0.50440000  1
  O  O1456  1  0.15140000  0.00970000  0.53220000  1
  O  O1457  1  0.12410000  0.04580000  0.47930000  1
  O  O1458  1  0.12150000  0.96870000  0.45730000  1
  O  O1459  1  0.25800000  0.17530000  0.72610000  1
  O  O1460  1  0.02740000  0.04710000  0.49500000  1
  O  O1461  1  0.24370000  0.81130000  0.14780000  1
  O  O1462  1  0.18070000  0.82070000  0.16880000  1
  O  O1463  1  0.98930000  0.59330000  0.93440000  1
  O  O1464  1  0.02480000  0.61220000  0.98920000  1
  O  O1465  1  0.31450000  0.83390000  0.17960000  1
  O  O1466  1  0.39490000  0.08250000  0.00440000  1
  O  O1467  1  0.34860000  0.99030000  0.03220000  1
  O  O1468  1  0.37590000  0.95420000  0.97930000  1
  O  O1469  1  0.37850000  0.03130000  0.95730000  1
  O  O1470  1  0.24200000  0.82470000  0.22610000  1
  O  O1471  1  0.47260000  0.95290000  0.99500000  1
  O  O1472  1  0.81130000  0.14780000  0.24370000  1
  O  O1473  1  0.82070000  0.16880000  0.18070000  1
  O  O1474  1  0.59330000  0.93440000  0.98930000  1
  O  O1475  1  0.61220000  0.98920000  0.02480000  1
  O  O1476  1  0.83390000  0.17960000  0.31450000  1
  O  O1477  1  0.08250000  0.00440000  0.39490000  1
  O  O1478  1  0.99030000  0.03220000  0.34860000  1
  O  O1479  1  0.95420000  0.97930000  0.37590000  1
  O  O1480  1  0.03130000  0.95730000  0.37850000  1
  O  O1481  1  0.82470000  0.22610000  0.24200000  1
  O  O1482  1  0.95290000  0.99500000  0.47260000  1
  O  O1483  1  0.18870000  0.64780000  0.25630000  1
  O  O1484  1  0.17930000  0.66880000  0.31930000  1
  O  O1485  1  0.40670000  0.43440000  0.51070000  1
  O  O1486  1  0.38780000  0.48920000  0.47520000  1
  O  O1487  1  0.16610000  0.67960000  0.18550000  1
  O  O1488  1  0.91750000  0.50440000  0.10510000  1
  O  O1489  1  0.00970000  0.53220000  0.15140000  1
  O  O1490  1  0.04580000  0.47930000  0.12410000  1
  O  O1491  1  0.96870000  0.45730000  0.12150000  1
  O  O1492  1  0.17530000  0.72610000  0.25800000  1
  O  O1493  1  0.04710000  0.49500000  0.02740000  1
  O  O1494  1  0.68870000  0.85220000  0.74370000  1
  O  O1495  1  0.67930000  0.83120000  0.68070000  1
  O  O1496  1  0.90670000  0.06560000  0.48930000  1
  O  O1497  1  0.88780000  0.01080000  0.52480000  1
  O  O1498  1  0.66610000  0.82040000  0.81450000  1
  O  O1499  1  0.41750000  0.99560000  0.89490000  1
  O  O1500  1  0.50970000  0.96780000  0.84860000  1
  O  O1501  1  0.54580000  0.02070000  0.87590000  1
  O  O1502  1  0.46870000  0.04270000  0.87850000  1
  O  O1503  1  0.67530000  0.77390000  0.74200000  1
  O  O1504  1  0.54710000  0.00500000  0.97260000  1
  O  O1505  1  0.31130000  0.35220000  0.75630000  1
  O  O1506  1  0.32070000  0.33120000  0.81930000  1
  O  O1507  1  0.09330000  0.56560000  0.01070000  1
  O  O1508  1  0.11220000  0.51080000  0.97520000  1
  O  O1509  1  0.33390000  0.32040000  0.68550000  1
  O  O1510  1  0.58250000  0.49560000  0.60510000  1
  O  O1511  1  0.49030000  0.46780000  0.65140000  1
  O  O1512  1  0.45420000  0.52070000  0.62410000  1
  O  O1513  1  0.53130000  0.54270000  0.62150000  1
  O  O1514  1  0.32470000  0.27390000  0.75800000  1
  O  O1515  1  0.45290000  0.50500000  0.52740000  1
  O  O1516  1  0.64780000  0.25630000  0.18870000  1
  O  O1517  1  0.66880000  0.31930000  0.17930000  1
  O  O1518  1  0.43440000  0.51070000  0.40670000  1
  O  O1519  1  0.48920000  0.47520000  0.38780000  1
  O  O1520  1  0.67960000  0.18550000  0.16610000  1
  O  O1521  1  0.50440000  0.10510000  0.91750000  1
  O  O1522  1  0.53220000  0.15140000  0.00970000  1
  O  O1523  1  0.47930000  0.12410000  0.04580000  1
  O  O1524  1  0.45730000  0.12150000  0.96870000  1
  O  O1525  1  0.72610000  0.25800000  0.17530000  1
  O  O1526  1  0.49500000  0.02740000  0.04710000  1
  O  O1527  1  0.14780000  0.24370000  0.81130000  1
  O  O1528  1  0.16880000  0.18070000  0.82070000  1
  O  O1529  1  0.93440000  0.98930000  0.59330000  1
  O  O1530  1  0.98920000  0.02480000  0.61220000  1
  O  O1531  1  0.17960000  0.31450000  0.83390000  1
  O  O1532  1  0.00440000  0.39490000  0.08250000  1
  O  O1533  1  0.03220000  0.34860000  0.99030000  1
  O  O1534  1  0.97930000  0.37590000  0.95420000  1
  O  O1535  1  0.95730000  0.37850000  0.03130000  1
  O  O1536  1  0.22610000  0.24200000  0.82470000  1
  O  O1537  1  0.99500000  0.47260000  0.95290000  1
  O  O1538  1  0.35220000  0.75630000  0.31130000  1
  O  O1539  1  0.33120000  0.81930000  0.32070000  1
  O  O1540  1  0.56560000  0.01070000  0.09330000  1
  O  O1541  1  0.51080000  0.97520000  0.11220000  1
  O  O1542  1  0.32040000  0.68550000  0.33390000  1
  O  O1543  1  0.49560000  0.60510000  0.58250000  1
  O  O1544  1  0.46780000  0.65140000  0.49030000  1
  O  O1545  1  0.52070000  0.62410000  0.45420000  1
  O  O1546  1  0.54270000  0.62150000  0.53130000  1
  O  O1547  1  0.27390000  0.75800000  0.32470000  1
  O  O1548  1  0.50500000  0.52740000  0.45290000  1
  O  O1549  1  0.85220000  0.74370000  0.68870000  1
  O  O1550  1  0.83120000  0.68070000  0.67930000  1
  O  O1551  1  0.06560000  0.48930000  0.90670000  1
  O  O1552  1  0.01080000  0.52480000  0.88780000  1
  O  O1553  1  0.82040000  0.81450000  0.66610000  1
  O  O1554  1  0.99560000  0.89490000  0.41750000  1
  O  O1555  1  0.96780000  0.84860000  0.50970000  1
  O  O1556  1  0.02070000  0.87590000  0.54580000  1
  O  O1557  1  0.04270000  0.87850000  0.46870000  1
  O  O1558  1  0.77390000  0.74200000  0.67530000  1
  O  O1559  1  0.00500000  0.97260000  0.54710000  1
  O  O1560  1  0.46290000  0.46290000  0.46290000  1
  O  O1561  1  0.03710000  0.53710000  0.96290000  1
  O  O1562  1  0.53710000  0.96290000  0.03710000  1
  O  O1563  1  0.96290000  0.03710000  0.53710000  1
  O  O1564  1  0.71290000  0.21290000  0.28710000  1
  O  O1565  1  0.78710000  0.78710000  0.78710000  1
  O  O1566  1  0.21290000  0.28710000  0.71290000  1
  O  O1567  1  0.28710000  0.71290000  0.21290000  1
  O  O1568  1  0.78820000  0.28820000  0.21180000  1
  O  O1569  1  0.71180000  0.71180000  0.71180000  1
  O  O1570  1  0.21180000  0.78820000  0.28820000  1
  O  O1571  1  0.28820000  0.21180000  0.78820000  1
  O  O1572  1  0.53820000  0.53820000  0.53820000  1
  O  O1573  1  0.96180000  0.46180000  0.03820000  1
  O  O1574  1  0.03820000  0.96180000  0.46180000  1
  O  O1575  1  0.46180000  0.03820000  0.96180000  1
