# generated using pymatgen
data_Zr6H51(C18O7)5
_symmetry_space_group_name_H-M   'P 1'
_cell_length_a   32.76300000
_cell_length_b   32.76300000
_cell_length_c   32.76300000
_cell_angle_alpha   90.00000000
_cell_angle_beta   90.00000000
_cell_angle_gamma   90.00000000
_symmetry_Int_Tables_number   1
_chemical_formula_structural   Zr6H51(C18O7)5
_chemical_formula_sum   'Zr48 H408 C720 O280'
_cell_volume   35168.26841895
_cell_formula_units_Z   8
loop_
 _symmetry_equiv_pos_site_id
 _symmetry_equiv_pos_as_xyz
  1  'x, y, z'
loop_
 _atom_site_type_symbol
 _atom_site_label
 _atom_site_symmetry_multiplicity
 _atom_site_fract_x
 _atom_site_fract_y
 _atom_site_fract_z
 _atom_site_occupancy
  Zr  Zr0  1  0.32139000  0.79355000  0.76481000  1
  Zr  Zr1  1  0.22352000  0.78039000  0.80490000  1
  Zr  Zr2  1  0.17861000  0.20645000  0.26481000  1
  Zr  Zr3  1  0.27648000  0.21961000  0.30490000  1
  Zr  Zr4  1  0.67861000  0.29355000  0.73519000  1
  Zr  Zr5  1  0.77648000  0.28039000  0.69510000  1
  Zr  Zr6  1  0.82139000  0.70645000  0.23519000  1
  Zr  Zr7  1  0.72352000  0.71961000  0.19510000  1
  Zr  Zr8  1  0.76481000  0.32139000  0.79355000  1
  Zr  Zr9  1  0.80490000  0.22352000  0.78039000  1
  Zr  Zr10  1  0.26481000  0.17861000  0.20645000  1
  Zr  Zr11  1  0.30490000  0.27648000  0.21961000  1
  Zr  Zr12  1  0.73519000  0.67861000  0.29355000  1
  Zr  Zr13  1  0.69510000  0.77648000  0.28039000  1
  Zr  Zr14  1  0.23519000  0.82139000  0.70645000  1
  Zr  Zr15  1  0.19510000  0.72352000  0.71961000  1
  Zr  Zr16  1  0.79355000  0.76481000  0.32139000  1
  Zr  Zr17  1  0.78039000  0.80490000  0.22352000  1
  Zr  Zr18  1  0.20645000  0.26481000  0.17861000  1
  Zr  Zr19  1  0.21961000  0.30490000  0.27648000  1
  Zr  Zr20  1  0.29355000  0.73519000  0.67861000  1
  Zr  Zr21  1  0.28039000  0.69510000  0.77648000  1
  Zr  Zr22  1  0.70645000  0.23519000  0.82139000  1
  Zr  Zr23  1  0.71961000  0.19510000  0.72352000  1
  Zr  Zr24  1  0.04355000  0.07139000  0.98519000  1
  Zr  Zr25  1  0.03039000  0.97352000  0.94510000  1
  Zr  Zr26  1  0.45645000  0.92861000  0.48519000  1
  Zr  Zr27  1  0.46961000  0.02648000  0.44510000  1
  Zr  Zr28  1  0.54355000  0.42861000  0.01481000  1
  Zr  Zr29  1  0.53039000  0.52648000  0.05490000  1
  Zr  Zr30  1  0.95645000  0.57139000  0.51481000  1
  Zr  Zr31  1  0.96961000  0.47352000  0.55490000  1
  Zr  Zr32  1  0.57139000  0.51481000  0.95645000  1
  Zr  Zr33  1  0.47352000  0.55490000  0.96961000  1
  Zr  Zr34  1  0.42861000  0.01481000  0.54355000  1
  Zr  Zr35  1  0.52648000  0.05490000  0.53039000  1
  Zr  Zr36  1  0.92861000  0.48519000  0.45645000  1
  Zr  Zr37  1  0.02648000  0.44510000  0.46961000  1
  Zr  Zr38  1  0.07139000  0.98519000  0.04355000  1
  Zr  Zr39  1  0.97352000  0.94510000  0.03039000  1
  Zr  Zr40  1  0.01481000  0.54355000  0.42861000  1
  Zr  Zr41  1  0.05490000  0.53039000  0.52648000  1
  Zr  Zr42  1  0.51481000  0.95645000  0.57139000  1
  Zr  Zr43  1  0.55490000  0.96961000  0.47352000  1
  Zr  Zr44  1  0.98519000  0.04355000  0.07139000  1
  Zr  Zr45  1  0.94510000  0.03039000  0.97352000  1
  Zr  Zr46  1  0.48519000  0.45645000  0.92861000  1
  Zr  Zr47  1  0.44510000  0.46961000  0.02648000  1
  H  H48  1  0.16600000  0.83800000  0.80170000  1
  H  H49  1  0.20120000  0.85860000  0.80980000  1
  H  H50  1  0.75250000  0.86480000  0.10580000  1
  H  H51  1  0.66360000  0.81720000  0.97150000  1
  H  H52  1  0.71400000  0.78040000  0.99890000  1
  H  H53  1  0.72780000  0.75380000  0.06320000  1
  H  H54  1  0.51130000  0.73810000  0.91720000  1
  H  H55  1  0.72610000  0.89350000  0.04370000  1
  H  H56  1  0.61520000  0.64050000  0.91120000  1
  H  H57  1  0.49630000  0.67380000  0.92770000  1
  H  H58  1  0.62780000  0.77640000  0.93010000  1
  H  H59  1  0.55320000  0.85200000  0.82500000  1
  H  H60  1  0.62910000  0.70880000  0.89510000  1
  H  H61  1  0.48250000  0.82720000  0.86760000  1
  H  H62  1  0.41990000  0.81390000  0.83630000  1
  H  H63  1  0.47710000  0.71260000  0.78890000  1
  H  H64  1  0.54170000  0.73690000  0.81650000  1
  H  H65  1  0.33400000  0.16200000  0.30170000  1
  H  H66  1  0.29880000  0.14140000  0.30980000  1
  H  H67  1  0.74750000  0.13520000  0.60580000  1
  H  H68  1  0.83640000  0.18280000  0.47150000  1
  H  H69  1  0.78600000  0.21960000  0.49890000  1
  H  H70  1  0.77220000  0.24620000  0.56320000  1
  H  H71  1  0.98870000  0.26190000  0.41720000  1
  H  H72  1  0.77390000  0.10650000  0.54370000  1
  H  H73  1  0.88480000  0.35950000  0.41120000  1
  H  H74  1  0.00370000  0.32620000  0.42770000  1
  H  H75  1  0.87220000  0.22360000  0.43010000  1
  H  H76  1  0.94680000  0.14800000  0.32500000  1
  H  H77  1  0.87090000  0.29120000  0.39510000  1
  H  H78  1  0.01750000  0.17280000  0.36760000  1
  H  H79  1  0.08010000  0.18610000  0.33630000  1
  H  H80  1  0.02290000  0.28740000  0.28890000  1
  H  H81  1  0.95830000  0.26310000  0.31650000  1
  H  H82  1  0.83400000  0.33800000  0.69830000  1
  H  H83  1  0.79880000  0.35860000  0.69020000  1
  H  H84  1  0.24750000  0.36480000  0.39420000  1
  H  H85  1  0.33640000  0.31720000  0.52850000  1
  H  H86  1  0.28600000  0.28040000  0.50110000  1
  H  H87  1  0.27220000  0.25380000  0.43680000  1
  H  H88  1  0.48870000  0.23810000  0.58280000  1
  H  H89  1  0.27390000  0.39350000  0.45630000  1
  H  H90  1  0.38480000  0.14050000  0.58880000  1
  H  H91  1  0.50370000  0.17380000  0.57230000  1
  H  H92  1  0.37220000  0.27640000  0.56990000  1
  H  H93  1  0.44680000  0.35200000  0.67500000  1
  H  H94  1  0.37090000  0.20880000  0.60490000  1
  H  H95  1  0.51750000  0.32720000  0.63240000  1
  H  H96  1  0.58010000  0.31390000  0.66370000  1
  H  H97  1  0.52290000  0.21260000  0.71110000  1
  H  H98  1  0.45830000  0.23690000  0.68350000  1
  H  H99  1  0.66600000  0.66200000  0.19830000  1
  H  H100  1  0.70120000  0.64140000  0.19020000  1
  H  H101  1  0.25250000  0.63520000  0.89420000  1
  H  H102  1  0.16360000  0.68280000  0.02850000  1
  H  H103  1  0.21400000  0.71960000  0.00110000  1
  H  H104  1  0.22780000  0.74620000  0.93680000  1
  H  H105  1  0.01130000  0.76190000  0.08280000  1
  H  H106  1  0.22610000  0.60650000  0.95630000  1
  H  H107  1  0.11520000  0.85950000  0.08880000  1
  H  H108  1  0.99630000  0.82620000  0.07230000  1
  H  H109  1  0.12780000  0.72360000  0.06990000  1
  H  H110  1  0.05320000  0.64800000  0.17500000  1
  H  H111  1  0.12910000  0.79120000  0.10490000  1
  H  H112  1  0.98250000  0.67280000  0.13240000  1
  H  H113  1  0.91990000  0.68610000  0.16370000  1
  H  H114  1  0.97710000  0.78740000  0.21110000  1
  H  H115  1  0.04170000  0.76310000  0.18350000  1
  H  H116  1  0.80170000  0.16600000  0.83800000  1
  H  H117  1  0.80980000  0.20120000  0.85860000  1
  H  H118  1  0.10580000  0.75250000  0.86480000  1
  H  H119  1  0.97150000  0.66360000  0.81720000  1
  H  H120  1  0.99890000  0.71400000  0.78040000  1
  H  H121  1  0.06320000  0.72780000  0.75380000  1
  H  H122  1  0.91720000  0.51130000  0.73810000  1
  H  H123  1  0.04370000  0.72610000  0.89350000  1
  H  H124  1  0.91120000  0.61520000  0.64050000  1
  H  H125  1  0.92770000  0.49630000  0.67380000  1
  H  H126  1  0.93010000  0.62780000  0.77640000  1
  H  H127  1  0.82500000  0.55320000  0.85200000  1
  H  H128  1  0.89510000  0.62910000  0.70880000  1
  H  H129  1  0.86760000  0.48250000  0.82720000  1
  H  H130  1  0.83630000  0.41990000  0.81390000  1
  H  H131  1  0.78890000  0.47710000  0.71260000  1
  H  H132  1  0.81650000  0.54170000  0.73690000  1
  H  H133  1  0.30170000  0.33400000  0.16200000  1
  H  H134  1  0.30980000  0.29880000  0.14140000  1
  H  H135  1  0.60580000  0.74750000  0.13520000  1
  H  H136  1  0.47150000  0.83640000  0.18280000  1
  H  H137  1  0.49890000  0.78600000  0.21960000  1
  H  H138  1  0.56320000  0.77220000  0.24620000  1
  H  H139  1  0.41720000  0.98870000  0.26190000  1
  H  H140  1  0.54370000  0.77390000  0.10650000  1
  H  H141  1  0.41120000  0.88480000  0.35950000  1
  H  H142  1  0.42770000  0.00370000  0.32620000  1
  H  H143  1  0.43010000  0.87220000  0.22360000  1
  H  H144  1  0.32500000  0.94680000  0.14800000  1
  H  H145  1  0.39510000  0.87090000  0.29120000  1
  H  H146  1  0.36760000  0.01750000  0.17280000  1
  H  H147  1  0.33630000  0.08010000  0.18610000  1
  H  H148  1  0.28890000  0.02290000  0.28740000  1
  H  H149  1  0.31650000  0.95830000  0.26310000  1
  H  H150  1  0.69830000  0.83400000  0.33800000  1
  H  H151  1  0.69020000  0.79880000  0.35860000  1
  H  H152  1  0.39420000  0.24750000  0.36480000  1
  H  H153  1  0.52850000  0.33640000  0.31720000  1
  H  H154  1  0.50110000  0.28600000  0.28040000  1
  H  H155  1  0.43680000  0.27220000  0.25380000  1
  H  H156  1  0.58280000  0.48870000  0.23810000  1
  H  H157  1  0.45630000  0.27390000  0.39350000  1
  H  H158  1  0.58880000  0.38480000  0.14050000  1
  H  H159  1  0.57230000  0.50370000  0.17380000  1
  H  H160  1  0.56990000  0.37220000  0.27640000  1
  H  H161  1  0.67500000  0.44680000  0.35200000  1
  H  H162  1  0.60490000  0.37090000  0.20880000  1
  H  H163  1  0.63240000  0.51750000  0.32720000  1
  H  H164  1  0.66370000  0.58010000  0.31390000  1
  H  H165  1  0.71110000  0.52290000  0.21260000  1
  H  H166  1  0.68350000  0.45830000  0.23690000  1
  H  H167  1  0.19830000  0.66600000  0.66200000  1
  H  H168  1  0.19020000  0.70120000  0.64140000  1
  H  H169  1  0.89420000  0.25250000  0.63520000  1
  H  H170  1  0.02850000  0.16360000  0.68280000  1
  H  H171  1  0.00110000  0.21400000  0.71960000  1
  H  H172  1  0.93680000  0.22780000  0.74620000  1
  H  H173  1  0.08280000  0.01130000  0.76190000  1
  H  H174  1  0.95630000  0.22610000  0.60650000  1
  H  H175  1  0.08880000  0.11520000  0.85950000  1
  H  H176  1  0.07230000  0.99630000  0.82620000  1
  H  H177  1  0.06990000  0.12780000  0.72360000  1
  H  H178  1  0.17500000  0.05320000  0.64800000  1
  H  H179  1  0.10490000  0.12910000  0.79120000  1
  H  H180  1  0.13240000  0.98250000  0.67280000  1
  H  H181  1  0.16370000  0.91990000  0.68610000  1
  H  H182  1  0.21110000  0.97710000  0.78740000  1
  H  H183  1  0.18350000  0.04170000  0.76310000  1
  H  H184  1  0.83800000  0.80170000  0.16600000  1
  H  H185  1  0.85860000  0.80980000  0.20120000  1
  H  H186  1  0.86480000  0.10580000  0.75250000  1
  H  H187  1  0.81720000  0.97150000  0.66360000  1
  H  H188  1  0.78040000  0.99890000  0.71400000  1
  H  H189  1  0.75380000  0.06320000  0.72780000  1
  H  H190  1  0.73810000  0.91720000  0.51130000  1
  H  H191  1  0.89350000  0.04370000  0.72610000  1
  H  H192  1  0.64050000  0.91120000  0.61520000  1
  H  H193  1  0.67380000  0.92770000  0.49630000  1
  H  H194  1  0.77640000  0.93010000  0.62780000  1
  H  H195  1  0.85200000  0.82500000  0.55320000  1
  H  H196  1  0.70880000  0.89510000  0.62910000  1
  H  H197  1  0.82720000  0.86760000  0.48250000  1
  H  H198  1  0.81390000  0.83630000  0.41990000  1
  H  H199  1  0.71260000  0.78890000  0.47710000  1
  H  H200  1  0.73690000  0.81650000  0.54170000  1
  H  H201  1  0.16200000  0.30170000  0.33400000  1
  H  H202  1  0.14140000  0.30980000  0.29880000  1
  H  H203  1  0.13520000  0.60580000  0.74750000  1
  H  H204  1  0.18280000  0.47150000  0.83640000  1
  H  H205  1  0.21960000  0.49890000  0.78600000  1
  H  H206  1  0.24620000  0.56320000  0.77220000  1
  H  H207  1  0.26190000  0.41720000  0.98870000  1
  H  H208  1  0.10650000  0.54370000  0.77390000  1
  H  H209  1  0.35950000  0.41120000  0.88480000  1
  H  H210  1  0.32620000  0.42770000  0.00370000  1
  H  H211  1  0.22360000  0.43010000  0.87220000  1
  H  H212  1  0.14800000  0.32500000  0.94680000  1
  H  H213  1  0.29120000  0.39510000  0.87090000  1
  H  H214  1  0.17280000  0.36760000  0.01750000  1
  H  H215  1  0.18610000  0.33630000  0.08010000  1
  H  H216  1  0.28740000  0.28890000  0.02290000  1
  H  H217  1  0.26310000  0.31650000  0.95830000  1
  H  H218  1  0.33800000  0.69830000  0.83400000  1
  H  H219  1  0.35860000  0.69020000  0.79880000  1
  H  H220  1  0.36480000  0.39420000  0.24750000  1
  H  H221  1  0.31720000  0.52850000  0.33640000  1
  H  H222  1  0.28040000  0.50110000  0.28600000  1
  H  H223  1  0.25380000  0.43680000  0.27220000  1
  H  H224  1  0.23810000  0.58280000  0.48870000  1
  H  H225  1  0.39350000  0.45630000  0.27390000  1
  H  H226  1  0.14050000  0.58880000  0.38480000  1
  H  H227  1  0.17380000  0.57230000  0.50370000  1
  H  H228  1  0.27640000  0.56990000  0.37220000  1
  H  H229  1  0.35200000  0.67500000  0.44680000  1
  H  H230  1  0.20880000  0.60490000  0.37090000  1
  H  H231  1  0.32720000  0.63240000  0.51750000  1
  H  H232  1  0.31390000  0.66370000  0.58010000  1
  H  H233  1  0.21260000  0.71110000  0.52290000  1
  H  H234  1  0.23690000  0.68350000  0.45830000  1
  H  H235  1  0.66200000  0.19830000  0.66600000  1
  H  H236  1  0.64140000  0.19020000  0.70120000  1
  H  H237  1  0.63520000  0.89420000  0.25250000  1
  H  H238  1  0.68280000  0.02850000  0.16360000  1
  H  H239  1  0.71960000  0.00110000  0.21400000  1
  H  H240  1  0.74620000  0.93680000  0.22780000  1
  H  H241  1  0.76190000  0.08280000  0.01130000  1
  H  H242  1  0.60650000  0.95630000  0.22610000  1
  H  H243  1  0.85950000  0.08880000  0.11520000  1
  H  H244  1  0.82620000  0.07230000  0.99630000  1
  H  H245  1  0.72360000  0.06990000  0.12780000  1
  H  H246  1  0.64800000  0.17500000  0.05320000  1
  H  H247  1  0.79120000  0.10490000  0.12910000  1
  H  H248  1  0.67280000  0.13240000  0.98250000  1
  H  H249  1  0.68610000  0.16370000  0.91990000  1
  H  H250  1  0.78740000  0.21110000  0.97710000  1
  H  H251  1  0.76310000  0.18350000  0.04170000  1
  H  H252  1  0.08800000  0.91600000  0.94830000  1
  H  H253  1  0.10860000  0.95120000  0.94020000  1
  H  H254  1  0.11480000  0.50250000  0.64420000  1
  H  H255  1  0.06720000  0.41360000  0.77850000  1
  H  H256  1  0.03040000  0.46400000  0.75110000  1
  H  H257  1  0.00380000  0.47780000  0.68680000  1
  H  H258  1  0.98810000  0.26130000  0.83280000  1
  H  H259  1  0.14350000  0.47610000  0.70630000  1
  H  H260  1  0.89050000  0.36520000  0.83880000  1
  H  H261  1  0.92380000  0.24630000  0.82230000  1
  H  H262  1  0.02640000  0.37780000  0.81990000  1
  H  H263  1  0.10200000  0.30320000  0.92500000  1
  H  H264  1  0.95880000  0.37910000  0.85490000  1
  H  H265  1  0.07720000  0.23250000  0.88240000  1
  H  H266  1  0.06390000  0.16990000  0.91370000  1
  H  H267  1  0.96260000  0.22710000  0.96110000  1
  H  H268  1  0.98690000  0.29170000  0.93350000  1
  H  H269  1  0.41200000  0.08400000  0.44830000  1
  H  H270  1  0.39140000  0.04880000  0.44020000  1
  H  H271  1  0.38520000  0.49750000  0.14420000  1
  H  H272  1  0.43280000  0.58640000  0.27850000  1
  H  H273  1  0.46960000  0.53600000  0.25110000  1
  H  H274  1  0.49620000  0.52220000  0.18680000  1
  H  H275  1  0.51190000  0.73870000  0.33280000  1
  H  H276  1  0.35650000  0.52390000  0.20630000  1
  H  H277  1  0.60950000  0.63480000  0.33880000  1
  H  H278  1  0.57620000  0.75370000  0.32230000  1
  H  H279  1  0.47360000  0.62220000  0.31990000  1
  H  H280  1  0.39800000  0.69680000  0.42500000  1
  H  H281  1  0.54120000  0.62090000  0.35490000  1
  H  H282  1  0.42280000  0.76750000  0.38240000  1
  H  H283  1  0.43610000  0.83010000  0.41370000  1
  H  H284  1  0.53740000  0.77290000  0.46110000  1
  H  H285  1  0.51310000  0.70830000  0.43350000  1
  H  H286  1  0.58800000  0.58400000  0.05170000  1
  H  H287  1  0.60860000  0.54880000  0.05980000  1
  H  H288  1  0.61480000  0.99750000  0.35580000  1
  H  H289  1  0.56720000  0.08640000  0.22150000  1
  H  H290  1  0.53040000  0.03600000  0.24890000  1
  H  H291  1  0.50380000  0.02220000  0.31320000  1
  H  H292  1  0.48810000  0.23870000  0.16720000  1
  H  H293  1  0.64350000  0.02390000  0.29370000  1
  H  H294  1  0.39050000  0.13480000  0.16120000  1
  H  H295  1  0.42380000  0.25370000  0.17770000  1
  H  H296  1  0.52640000  0.12220000  0.18010000  1
  H  H297  1  0.60200000  0.19680000  0.07500000  1
  H  H298  1  0.45880000  0.12090000  0.14510000  1
  H  H299  1  0.57720000  0.26750000  0.11760000  1
  H  H300  1  0.56390000  0.33010000  0.08630000  1
  H  H301  1  0.46260000  0.27290000  0.03890000  1
  H  H302  1  0.48690000  0.20830000  0.06650000  1
  H  H303  1  0.91200000  0.41600000  0.55170000  1
  H  H304  1  0.89140000  0.45120000  0.55980000  1
  H  H305  1  0.88520000  0.00250000  0.85580000  1
  H  H306  1  0.93280000  0.91360000  0.72150000  1
  H  H307  1  0.96960000  0.96400000  0.74890000  1
  H  H308  1  0.99620000  0.97780000  0.81320000  1
  H  H309  1  0.01190000  0.76130000  0.66720000  1
  H  H310  1  0.85650000  0.97610000  0.79370000  1
  H  H311  1  0.10950000  0.86520000  0.66120000  1
  H  H312  1  0.07620000  0.74630000  0.67770000  1
  H  H313  1  0.97360000  0.87780000  0.68010000  1
  H  H314  1  0.89800000  0.80320000  0.57500000  1
  H  H315  1  0.04120000  0.87910000  0.64510000  1
  H  H316  1  0.92280000  0.73250000  0.61760000  1
  H  H317  1  0.93610000  0.66990000  0.58630000  1
  H  H318  1  0.03740000  0.72710000  0.53890000  1
  H  H319  1  0.01310000  0.79170000  0.56650000  1
  H  H320  1  0.41600000  0.55170000  0.91200000  1
  H  H321  1  0.45120000  0.55980000  0.89140000  1
  H  H322  1  0.00250000  0.85580000  0.88520000  1
  H  H323  1  0.91360000  0.72150000  0.93280000  1
  H  H324  1  0.96400000  0.74890000  0.96960000  1
  H  H325  1  0.97780000  0.81320000  0.99620000  1
  H  H326  1  0.76130000  0.66720000  0.01190000  1
  H  H327  1  0.97610000  0.79370000  0.85650000  1
  H  H328  1  0.86520000  0.66120000  0.10950000  1
  H  H329  1  0.74630000  0.67770000  0.07620000  1
  H  H330  1  0.87780000  0.68010000  0.97360000  1
  H  H331  1  0.80320000  0.57500000  0.89800000  1
  H  H332  1  0.87910000  0.64510000  0.04120000  1
  H  H333  1  0.73250000  0.61760000  0.92280000  1
  H  H334  1  0.66990000  0.58630000  0.93610000  1
  H  H335  1  0.72710000  0.53890000  0.03740000  1
  H  H336  1  0.79170000  0.56650000  0.01310000  1
  H  H337  1  0.58400000  0.05170000  0.58800000  1
  H  H338  1  0.54880000  0.05980000  0.60860000  1
  H  H339  1  0.99750000  0.35580000  0.61480000  1
  H  H340  1  0.08640000  0.22150000  0.56720000  1
  H  H341  1  0.03600000  0.24890000  0.53040000  1
  H  H342  1  0.02220000  0.31320000  0.50380000  1
  H  H343  1  0.23870000  0.16720000  0.48810000  1
  H  H344  1  0.02390000  0.29370000  0.64350000  1
  H  H345  1  0.13480000  0.16120000  0.39050000  1
  H  H346  1  0.25370000  0.17770000  0.42380000  1
  H  H347  1  0.12220000  0.18010000  0.52640000  1
  H  H348  1  0.19680000  0.07500000  0.60200000  1
  H  H349  1  0.12090000  0.14510000  0.45880000  1
  H  H350  1  0.26750000  0.11760000  0.57720000  1
  H  H351  1  0.33010000  0.08630000  0.56390000  1
  H  H352  1  0.27290000  0.03890000  0.46260000  1
  H  H353  1  0.20830000  0.06650000  0.48690000  1
  H  H354  1  0.08400000  0.44830000  0.41200000  1
  H  H355  1  0.04880000  0.44020000  0.39140000  1
  H  H356  1  0.49750000  0.14420000  0.38520000  1
  H  H357  1  0.58640000  0.27850000  0.43280000  1
  H  H358  1  0.53600000  0.25110000  0.46960000  1
  H  H359  1  0.52220000  0.18680000  0.49620000  1
  H  H360  1  0.73870000  0.33280000  0.51190000  1
  H  H361  1  0.52390000  0.20630000  0.35650000  1
  H  H362  1  0.63480000  0.33880000  0.60950000  1
  H  H363  1  0.75370000  0.32230000  0.57620000  1
  H  H364  1  0.62220000  0.31990000  0.47360000  1
  H  H365  1  0.69680000  0.42500000  0.39800000  1
  H  H366  1  0.62090000  0.35490000  0.54120000  1
  H  H367  1  0.76750000  0.38240000  0.42280000  1
  H  H368  1  0.83010000  0.41370000  0.43610000  1
  H  H369  1  0.77290000  0.46110000  0.53740000  1
  H  H370  1  0.70830000  0.43350000  0.51310000  1
  H  H371  1  0.91600000  0.94830000  0.08800000  1
  H  H372  1  0.95120000  0.94020000  0.10860000  1
  H  H373  1  0.50250000  0.64420000  0.11480000  1
  H  H374  1  0.41360000  0.77850000  0.06720000  1
  H  H375  1  0.46400000  0.75110000  0.03040000  1
  H  H376  1  0.47780000  0.68680000  0.00380000  1
  H  H377  1  0.26130000  0.83280000  0.98810000  1
  H  H378  1  0.47610000  0.70630000  0.14350000  1
  H  H379  1  0.36520000  0.83880000  0.89050000  1
  H  H380  1  0.24630000  0.82230000  0.92380000  1
  H  H381  1  0.37780000  0.81990000  0.02640000  1
  H  H382  1  0.30320000  0.92500000  0.10200000  1
  H  H383  1  0.37910000  0.85490000  0.95880000  1
  H  H384  1  0.23250000  0.88240000  0.07720000  1
  H  H385  1  0.16990000  0.91370000  0.06390000  1
  H  H386  1  0.22710000  0.96110000  0.96260000  1
  H  H387  1  0.29170000  0.93350000  0.98690000  1
  H  H388  1  0.05170000  0.58800000  0.58400000  1
  H  H389  1  0.05980000  0.60860000  0.54880000  1
  H  H390  1  0.35580000  0.61480000  0.99750000  1
  H  H391  1  0.22150000  0.56720000  0.08640000  1
  H  H392  1  0.24890000  0.53040000  0.03600000  1
  H  H393  1  0.31320000  0.50380000  0.02220000  1
  H  H394  1  0.16720000  0.48810000  0.23870000  1
  H  H395  1  0.29370000  0.64350000  0.02390000  1
  H  H396  1  0.16120000  0.39050000  0.13480000  1
  H  H397  1  0.17770000  0.42380000  0.25370000  1
  H  H398  1  0.18010000  0.52640000  0.12220000  1
  H  H399  1  0.07500000  0.60200000  0.19680000  1
  H  H400  1  0.14510000  0.45880000  0.12090000  1
  H  H401  1  0.11760000  0.57720000  0.26750000  1
  H  H402  1  0.08630000  0.56390000  0.33010000  1
  H  H403  1  0.03890000  0.46260000  0.27290000  1
  H  H404  1  0.06650000  0.48690000  0.20830000  1
  H  H405  1  0.55170000  0.91200000  0.41600000  1
  H  H406  1  0.55980000  0.89140000  0.45120000  1
  H  H407  1  0.85580000  0.88520000  0.00250000  1
  H  H408  1  0.72150000  0.93280000  0.91360000  1
  H  H409  1  0.74890000  0.96960000  0.96400000  1
  H  H410  1  0.81320000  0.99620000  0.97780000  1
  H  H411  1  0.66720000  0.01190000  0.76130000  1
  H  H412  1  0.79370000  0.85650000  0.97610000  1
  H  H413  1  0.66120000  0.10950000  0.86520000  1
  H  H414  1  0.67770000  0.07620000  0.74630000  1
  H  H415  1  0.68010000  0.97360000  0.87780000  1
  H  H416  1  0.57500000  0.89800000  0.80320000  1
  H  H417  1  0.64510000  0.04120000  0.87910000  1
  H  H418  1  0.61760000  0.92280000  0.73250000  1
  H  H419  1  0.58630000  0.93610000  0.66990000  1
  H  H420  1  0.53890000  0.03740000  0.72710000  1
  H  H421  1  0.56650000  0.01310000  0.79170000  1
  H  H422  1  0.94830000  0.08800000  0.91600000  1
  H  H423  1  0.94020000  0.10860000  0.95120000  1
  H  H424  1  0.64420000  0.11480000  0.50250000  1
  H  H425  1  0.77850000  0.06720000  0.41360000  1
  H  H426  1  0.75110000  0.03040000  0.46400000  1
  H  H427  1  0.68680000  0.00380000  0.47780000  1
  H  H428  1  0.83280000  0.98810000  0.26130000  1
  H  H429  1  0.70630000  0.14350000  0.47610000  1
  H  H430  1  0.83880000  0.89050000  0.36520000  1
  H  H431  1  0.82230000  0.92380000  0.24630000  1
  H  H432  1  0.81990000  0.02640000  0.37780000  1
  H  H433  1  0.92500000  0.10200000  0.30320000  1
  H  H434  1  0.85490000  0.95880000  0.37910000  1
  H  H435  1  0.88240000  0.07720000  0.23250000  1
  H  H436  1  0.91370000  0.06390000  0.16990000  1
  H  H437  1  0.96110000  0.96260000  0.22710000  1
  H  H438  1  0.93350000  0.98690000  0.29170000  1
  H  H439  1  0.44830000  0.41200000  0.08400000  1
  H  H440  1  0.44020000  0.39140000  0.04880000  1
  H  H441  1  0.14420000  0.38520000  0.49750000  1
  H  H442  1  0.27850000  0.43280000  0.58640000  1
  H  H443  1  0.25110000  0.46960000  0.53600000  1
  H  H444  1  0.18680000  0.49620000  0.52220000  1
  H  H445  1  0.33280000  0.51190000  0.73870000  1
  H  H446  1  0.20630000  0.35650000  0.52390000  1
  H  H447  1  0.33880000  0.60950000  0.63480000  1
  H  H448  1  0.32230000  0.57620000  0.75370000  1
  H  H449  1  0.31990000  0.47360000  0.62220000  1
  H  H450  1  0.42500000  0.39800000  0.69680000  1
  H  H451  1  0.35490000  0.54120000  0.62090000  1
  H  H452  1  0.38240000  0.42280000  0.76750000  1
  H  H453  1  0.41370000  0.43610000  0.83010000  1
  H  H454  1  0.46110000  0.53740000  0.77290000  1
  H  H455  1  0.43350000  0.51310000  0.70830000  1
  C  C456  1  0.73710000  0.80750000  0.09180000  1
  C  C457  1  0.74160000  0.84820000  0.08550000  1
  C  C458  1  0.55240000  0.64970000  0.91940000  1
  C  C459  1  0.54320000  0.60860000  0.92950000  1
  C  C460  1  0.67500000  0.84010000  0.95920000  1
  C  C461  1  0.72040000  0.79780000  0.02030000  1
  C  C462  1  0.72190000  0.83890000  0.01400000  1
  C  C463  1  0.70570000  0.85820000  0.97490000  1
  C  C464  1  0.74120000  0.79110000  0.13170000  1
  C  C465  1  0.44420000  0.76260000  0.80700000  1
  C  C466  1  0.72830000  0.78190000  0.05920000  1
  C  C467  1  0.53120000  0.71840000  0.91290000  1
  C  C468  1  0.72920000  0.86540000  0.04680000  1
  C  C469  1  0.59450000  0.65990000  0.91030000  1
  C  C470  1  0.52290000  0.68070000  0.92080000  1
  C  C471  1  0.61310000  0.79090000  0.91060000  1
  C  C472  1  0.51650000  0.78550000  0.84350000  1
  C  C473  1  0.56740000  0.83900000  0.84590000  1
  C  C474  1  0.55600000  0.80110000  0.86140000  1
  C  C475  1  0.65780000  0.85720000  0.91990000  1
  C  C476  1  0.57040000  0.73060000  0.89770000  1
  C  C477  1  0.62230000  0.83690000  0.89850000  1
  C  C478  1  0.60240000  0.70080000  0.90030000  1
  C  C479  1  0.48130000  0.80540000  0.84940000  1
  C  C480  1  0.57870000  0.77380000  0.88740000  1
  C  C481  1  0.44300000  0.79790000  0.83200000  1
  C  C482  1  0.47880000  0.73740000  0.80270000  1
  C  C483  1  0.51760000  0.75120000  0.82070000  1
  C  C484  1  0.60150000  0.85560000  0.86420000  1
  C  C485  1  0.40450000  0.74910000  0.78870000  1
  C  C486  1  0.76290000  0.19250000  0.59180000  1
  C  C487  1  0.75840000  0.15180000  0.58550000  1
  C  C488  1  0.94760000  0.35030000  0.41940000  1
  C  C489  1  0.95680000  0.39140000  0.42950000  1
  C  C490  1  0.82500000  0.15990000  0.45920000  1
  C  C491  1  0.77960000  0.20220000  0.52030000  1
  C  C492  1  0.77810000  0.16110000  0.51400000  1
  C  C493  1  0.79430000  0.14180000  0.47490000  1
  C  C494  1  0.75880000  0.20890000  0.63170000  1
  C  C495  1  0.05580000  0.23740000  0.30700000  1
  C  C496  1  0.77170000  0.21810000  0.55920000  1
  C  C497  1  0.96880000  0.28160000  0.41290000  1
  C  C498  1  0.77080000  0.13460000  0.54680000  1
  C  C499  1  0.90550000  0.34010000  0.41030000  1
  C  C500  1  0.97710000  0.31930000  0.42080000  1
  C  C501  1  0.88690000  0.20910000  0.41060000  1
  C  C502  1  0.98350000  0.21450000  0.34350000  1
  C  C503  1  0.93260000  0.16100000  0.34590000  1
  C  C504  1  0.94400000  0.19890000  0.36140000  1
  C  C505  1  0.84220000  0.14280000  0.41990000  1
  C  C506  1  0.92960000  0.26940000  0.39770000  1
  C  C507  1  0.87770000  0.16310000  0.39850000  1
  C  C508  1  0.89760000  0.29920000  0.40030000  1
  C  C509  1  0.01870000  0.19460000  0.34940000  1
  C  C510  1  0.92130000  0.22620000  0.38740000  1
  C  C511  1  0.05700000  0.20210000  0.33200000  1
  C  C512  1  0.02120000  0.26260000  0.30270000  1
  C  C513  1  0.98240000  0.24880000  0.32070000  1
  C  C514  1  0.89850000  0.14440000  0.36420000  1
  C  C515  1  0.09550000  0.25090000  0.28870000  1
  C  C516  1  0.26290000  0.30750000  0.40820000  1
  C  C517  1  0.25840000  0.34820000  0.41450000  1
  C  C518  1  0.44760000  0.14970000  0.58060000  1
  C  C519  1  0.45680000  0.10860000  0.57050000  1
  C  C520  1  0.32500000  0.34010000  0.54080000  1
  C  C521  1  0.27960000  0.29780000  0.47970000  1
  C  C522  1  0.27810000  0.33890000  0.48600000  1
  C  C523  1  0.29430000  0.35820000  0.52510000  1
  C  C524  1  0.25880000  0.29110000  0.36830000  1
  C  C525  1  0.55580000  0.26260000  0.69300000  1
  C  C526  1  0.27170000  0.28190000  0.44080000  1
  C  C527  1  0.46880000  0.21840000  0.58710000  1
  C  C528  1  0.27080000  0.36540000  0.45320000  1
  C  C529  1  0.40550000  0.15990000  0.58970000  1
  C  C530  1  0.47710000  0.18070000  0.57920000  1
  C  C531  1  0.38690000  0.29090000  0.58940000  1
  C  C532  1  0.48350000  0.28550000  0.65650000  1
  C  C533  1  0.43260000  0.33900000  0.65410000  1
  C  C534  1  0.44400000  0.30110000  0.63860000  1
  C  C535  1  0.34220000  0.35720000  0.58010000  1
  C  C536  1  0.42960000  0.23060000  0.60230000  1
  C  C537  1  0.37770000  0.33690000  0.60150000  1
  C  C538  1  0.39760000  0.20080000  0.59970000  1
  C  C539  1  0.51870000  0.30540000  0.65060000  1
  C  C540  1  0.42130000  0.27380000  0.61260000  1
  C  C541  1  0.55700000  0.29790000  0.66800000  1
  C  C542  1  0.52120000  0.23740000  0.69730000  1
  C  C543  1  0.48240000  0.25120000  0.67930000  1
  C  C544  1  0.39850000  0.35560000  0.63580000  1
  C  C545  1  0.59550000  0.24910000  0.71130000  1
  C  C546  1  0.23710000  0.69250000  0.90820000  1
  C  C547  1  0.24160000  0.65180000  0.91450000  1
  C  C548  1  0.05240000  0.85030000  0.08060000  1
  C  C549  1  0.04320000  0.89140000  0.07050000  1
  C  C550  1  0.17500000  0.65990000  0.04080000  1
  C  C551  1  0.22040000  0.70220000  0.97970000  1
  C  C552  1  0.22190000  0.66110000  0.98600000  1
  C  C553  1  0.20570000  0.64180000  0.02510000  1
  C  C554  1  0.24120000  0.70890000  0.86830000  1
  C  C555  1  0.94420000  0.73740000  0.19300000  1
  C  C556  1  0.22830000  0.71810000  0.94080000  1
  C  C557  1  0.03120000  0.78160000  0.08710000  1
  C  C558  1  0.22920000  0.63460000  0.95320000  1
  C  C559  1  0.09450000  0.84010000  0.08970000  1
  C  C560  1  0.02290000  0.81930000  0.07920000  1
  C  C561  1  0.11310000  0.70910000  0.08940000  1
  C  C562  1  0.01650000  0.71450000  0.15650000  1
  C  C563  1  0.06740000  0.66100000  0.15410000  1
  C  C564  1  0.05600000  0.69890000  0.13860000  1
  C  C565  1  0.15780000  0.64280000  0.08010000  1
  C  C566  1  0.07040000  0.76940000  0.10230000  1
  C  C567  1  0.12230000  0.66310000  0.10150000  1
  C  C568  1  0.10240000  0.79920000  0.09970000  1
  C  C569  1  0.98130000  0.69460000  0.15060000  1
  C  C570  1  0.07870000  0.72620000  0.11260000  1
  C  C571  1  0.94300000  0.70210000  0.16800000  1
  C  C572  1  0.97880000  0.76260000  0.19730000  1
  C  C573  1  0.01760000  0.74880000  0.17930000  1
  C  C574  1  0.10150000  0.64440000  0.13580000  1
  C  C575  1  0.90450000  0.75090000  0.21130000  1
  C  C576  1  0.09180000  0.73710000  0.80750000  1
  C  C577  1  0.08550000  0.74160000  0.84820000  1
  C  C578  1  0.91940000  0.55240000  0.64970000  1
  C  C579  1  0.92950000  0.54320000  0.60860000  1
  C  C580  1  0.95920000  0.67500000  0.84010000  1
  C  C581  1  0.02030000  0.72040000  0.79780000  1
  C  C582  1  0.01400000  0.72190000  0.83890000  1
  C  C583  1  0.97490000  0.70570000  0.85820000  1
  C  C584  1  0.13170000  0.74120000  0.79110000  1
  C  C585  1  0.80700000  0.44420000  0.76260000  1
  C  C586  1  0.05920000  0.72830000  0.78190000  1
  C  C587  1  0.91290000  0.53120000  0.71840000  1
  C  C588  1  0.04680000  0.72920000  0.86540000  1
  C  C589  1  0.91030000  0.59450000  0.65990000  1
  C  C590  1  0.92080000  0.52290000  0.68070000  1
  C  C591  1  0.91060000  0.61310000  0.79090000  1
  C  C592  1  0.84350000  0.51650000  0.78550000  1
  C  C593  1  0.84590000  0.56740000  0.83900000  1
  C  C594  1  0.86140000  0.55600000  0.80110000  1
  C  C595  1  0.91990000  0.65780000  0.85720000  1
  C  C596  1  0.89770000  0.57040000  0.73060000  1
  C  C597  1  0.89850000  0.62230000  0.83690000  1
  C  C598  1  0.90030000  0.60240000  0.70080000  1
  C  C599  1  0.84940000  0.48130000  0.80540000  1
  C  C600  1  0.88740000  0.57870000  0.77380000  1
  C  C601  1  0.83200000  0.44300000  0.79790000  1
  C  C602  1  0.80270000  0.47880000  0.73740000  1
  C  C603  1  0.82070000  0.51760000  0.75120000  1
  C  C604  1  0.86420000  0.60150000  0.85560000  1
  C  C605  1  0.78870000  0.40450000  0.74910000  1
  C  C606  1  0.59180000  0.76290000  0.19250000  1
  C  C607  1  0.58550000  0.75840000  0.15180000  1
  C  C608  1  0.41940000  0.94760000  0.35030000  1
  C  C609  1  0.42950000  0.95680000  0.39140000  1
  C  C610  1  0.45920000  0.82500000  0.15990000  1
  C  C611  1  0.52030000  0.77960000  0.20220000  1
  C  C612  1  0.51400000  0.77810000  0.16110000  1
  C  C613  1  0.47490000  0.79430000  0.14180000  1
  C  C614  1  0.63170000  0.75880000  0.20890000  1
  C  C615  1  0.30700000  0.05580000  0.23740000  1
  C  C616  1  0.55920000  0.77170000  0.21810000  1
  C  C617  1  0.41290000  0.96880000  0.28160000  1
  C  C618  1  0.54680000  0.77080000  0.13460000  1
  C  C619  1  0.41030000  0.90550000  0.34010000  1
  C  C620  1  0.42080000  0.97710000  0.31930000  1
  C  C621  1  0.41060000  0.88690000  0.20910000  1
  C  C622  1  0.34350000  0.98350000  0.21450000  1
  C  C623  1  0.34590000  0.93260000  0.16100000  1
  C  C624  1  0.36140000  0.94400000  0.19890000  1
  C  C625  1  0.41990000  0.84220000  0.14280000  1
  C  C626  1  0.39770000  0.92960000  0.26940000  1
  C  C627  1  0.39850000  0.87770000  0.16310000  1
  C  C628  1  0.40030000  0.89760000  0.29920000  1
  C  C629  1  0.34940000  0.01870000  0.19460000  1
  C  C630  1  0.38740000  0.92130000  0.22620000  1
  C  C631  1  0.33200000  0.05700000  0.20210000  1
  C  C632  1  0.30270000  0.02120000  0.26260000  1
  C  C633  1  0.32070000  0.98240000  0.24880000  1
  C  C634  1  0.36420000  0.89850000  0.14440000  1
  C  C635  1  0.28870000  0.09550000  0.25090000  1
  C  C636  1  0.40820000  0.26290000  0.30750000  1
  C  C637  1  0.41450000  0.25840000  0.34820000  1
  C  C638  1  0.58060000  0.44760000  0.14970000  1
  C  C639  1  0.57050000  0.45680000  0.10860000  1
  C  C640  1  0.54080000  0.32500000  0.34010000  1
  C  C641  1  0.47970000  0.27960000  0.29780000  1
  C  C642  1  0.48600000  0.27810000  0.33890000  1
  C  C643  1  0.52510000  0.29430000  0.35820000  1
  C  C644  1  0.36830000  0.25880000  0.29110000  1
  C  C645  1  0.69300000  0.55580000  0.26260000  1
  C  C646  1  0.44080000  0.27170000  0.28190000  1
  C  C647  1  0.58710000  0.46880000  0.21840000  1
  C  C648  1  0.45320000  0.27080000  0.36540000  1
  C  C649  1  0.58970000  0.40550000  0.15990000  1
  C  C650  1  0.57920000  0.47710000  0.18070000  1
  C  C651  1  0.58940000  0.38690000  0.29090000  1
  C  C652  1  0.65650000  0.48350000  0.28550000  1
  C  C653  1  0.65410000  0.43260000  0.33900000  1
  C  C654  1  0.63860000  0.44400000  0.30110000  1
  C  C655  1  0.58010000  0.34220000  0.35720000  1
  C  C656  1  0.60230000  0.42960000  0.23060000  1
  C  C657  1  0.60150000  0.37770000  0.33690000  1
  C  C658  1  0.59970000  0.39760000  0.20080000  1
  C  C659  1  0.65060000  0.51870000  0.30540000  1
  C  C660  1  0.61260000  0.42130000  0.27380000  1
  C  C661  1  0.66800000  0.55700000  0.29790000  1
  C  C662  1  0.69730000  0.52120000  0.23740000  1
  C  C663  1  0.67930000  0.48240000  0.25120000  1
  C  C664  1  0.63580000  0.39850000  0.35560000  1
  C  C665  1  0.71130000  0.59550000  0.24910000  1
  C  C666  1  0.90820000  0.23710000  0.69250000  1
  C  C667  1  0.91450000  0.24160000  0.65180000  1
  C  C668  1  0.08060000  0.05240000  0.85030000  1
  C  C669  1  0.07050000  0.04320000  0.89140000  1
  C  C670  1  0.04080000  0.17500000  0.65990000  1
  C  C671  1  0.97970000  0.22040000  0.70220000  1
  C  C672  1  0.98600000  0.22190000  0.66110000  1
  C  C673  1  0.02510000  0.20570000  0.64180000  1
  C  C674  1  0.86830000  0.24120000  0.70890000  1
  C  C675  1  0.19300000  0.94420000  0.73740000  1
  C  C676  1  0.94080000  0.22830000  0.71810000  1
  C  C677  1  0.08710000  0.03120000  0.78160000  1
  C  C678  1  0.95320000  0.22920000  0.63460000  1
  C  C679  1  0.08970000  0.09450000  0.84010000  1
  C  C680  1  0.07920000  0.02290000  0.81930000  1
  C  C681  1  0.08940000  0.11310000  0.70910000  1
  C  C682  1  0.15650000  0.01650000  0.71450000  1
  C  C683  1  0.15410000  0.06740000  0.66100000  1
  C  C684  1  0.13860000  0.05600000  0.69890000  1
  C  C685  1  0.08010000  0.15780000  0.64280000  1
  C  C686  1  0.10230000  0.07040000  0.76940000  1
  C  C687  1  0.10150000  0.12230000  0.66310000  1
  C  C688  1  0.09970000  0.10240000  0.79920000  1
  C  C689  1  0.15060000  0.98130000  0.69460000  1
  C  C690  1  0.11260000  0.07870000  0.72620000  1
  C  C691  1  0.16800000  0.94300000  0.70210000  1
  C  C692  1  0.19730000  0.97880000  0.76260000  1
  C  C693  1  0.17930000  0.01760000  0.74880000  1
  C  C694  1  0.13580000  0.10150000  0.64440000  1
  C  C695  1  0.21130000  0.90450000  0.75090000  1
  C  C696  1  0.80750000  0.09180000  0.73710000  1
  C  C697  1  0.84820000  0.08550000  0.74160000  1
  C  C698  1  0.64970000  0.91940000  0.55240000  1
  C  C699  1  0.60860000  0.92950000  0.54320000  1
  C  C700  1  0.84010000  0.95920000  0.67500000  1
  C  C701  1  0.79780000  0.02030000  0.72040000  1
  C  C702  1  0.83890000  0.01400000  0.72190000  1
  C  C703  1  0.85820000  0.97490000  0.70570000  1
  C  C704  1  0.79110000  0.13170000  0.74120000  1
  C  C705  1  0.76260000  0.80700000  0.44420000  1
  C  C706  1  0.78190000  0.05920000  0.72830000  1
  C  C707  1  0.71840000  0.91290000  0.53120000  1
  C  C708  1  0.86540000  0.04680000  0.72920000  1
  C  C709  1  0.65990000  0.91030000  0.59450000  1
  C  C710  1  0.68070000  0.92080000  0.52290000  1
  C  C711  1  0.79090000  0.91060000  0.61310000  1
  C  C712  1  0.78550000  0.84350000  0.51650000  1
  C  C713  1  0.83900000  0.84590000  0.56740000  1
  C  C714  1  0.80110000  0.86140000  0.55600000  1
  C  C715  1  0.85720000  0.91990000  0.65780000  1
  C  C716  1  0.73060000  0.89770000  0.57040000  1
  C  C717  1  0.83690000  0.89850000  0.62230000  1
  C  C718  1  0.70080000  0.90030000  0.60240000  1
  C  C719  1  0.80540000  0.84940000  0.48130000  1
  C  C720  1  0.77380000  0.88740000  0.57870000  1
  C  C721  1  0.79790000  0.83200000  0.44300000  1
  C  C722  1  0.73740000  0.80270000  0.47880000  1
  C  C723  1  0.75120000  0.82070000  0.51760000  1
  C  C724  1  0.85560000  0.86420000  0.60150000  1
  C  C725  1  0.74910000  0.78870000  0.40450000  1
  C  C726  1  0.19250000  0.59180000  0.76290000  1
  C  C727  1  0.15180000  0.58550000  0.75840000  1
  C  C728  1  0.35030000  0.41940000  0.94760000  1
  C  C729  1  0.39140000  0.42950000  0.95680000  1
  C  C730  1  0.15990000  0.45920000  0.82500000  1
  C  C731  1  0.20220000  0.52030000  0.77960000  1
  C  C732  1  0.16110000  0.51400000  0.77810000  1
  C  C733  1  0.14180000  0.47490000  0.79430000  1
  C  C734  1  0.20890000  0.63170000  0.75880000  1
  C  C735  1  0.23740000  0.30700000  0.05580000  1
  C  C736  1  0.21810000  0.55920000  0.77170000  1
  C  C737  1  0.28160000  0.41290000  0.96880000  1
  C  C738  1  0.13460000  0.54680000  0.77080000  1
  C  C739  1  0.34010000  0.41030000  0.90550000  1
  C  C740  1  0.31930000  0.42080000  0.97710000  1
  C  C741  1  0.20910000  0.41060000  0.88690000  1
  C  C742  1  0.21450000  0.34350000  0.98350000  1
  C  C743  1  0.16100000  0.34590000  0.93260000  1
  C  C744  1  0.19890000  0.36140000  0.94400000  1
  C  C745  1  0.14280000  0.41990000  0.84220000  1
  C  C746  1  0.26940000  0.39770000  0.92960000  1
  C  C747  1  0.16310000  0.39850000  0.87770000  1
  C  C748  1  0.29920000  0.40030000  0.89760000  1
  C  C749  1  0.19460000  0.34940000  0.01870000  1
  C  C750  1  0.22620000  0.38740000  0.92130000  1
  C  C751  1  0.20210000  0.33200000  0.05700000  1
  C  C752  1  0.26260000  0.30270000  0.02120000  1
  C  C753  1  0.24880000  0.32070000  0.98240000  1
  C  C754  1  0.14440000  0.36420000  0.89850000  1
  C  C755  1  0.25090000  0.28870000  0.09550000  1
  C  C756  1  0.30750000  0.40820000  0.26290000  1
  C  C757  1  0.34820000  0.41450000  0.25840000  1
  C  C758  1  0.14970000  0.58060000  0.44760000  1
  C  C759  1  0.10860000  0.57050000  0.45680000  1
  C  C760  1  0.34010000  0.54080000  0.32500000  1
  C  C761  1  0.29780000  0.47970000  0.27960000  1
  C  C762  1  0.33890000  0.48600000  0.27810000  1
  C  C763  1  0.35820000  0.52510000  0.29430000  1
  C  C764  1  0.29110000  0.36830000  0.25880000  1
  C  C765  1  0.26260000  0.69300000  0.55580000  1
  C  C766  1  0.28190000  0.44080000  0.27170000  1
  C  C767  1  0.21840000  0.58710000  0.46880000  1
  C  C768  1  0.36540000  0.45320000  0.27080000  1
  C  C769  1  0.15990000  0.58970000  0.40550000  1
  C  C770  1  0.18070000  0.57920000  0.47710000  1
  C  C771  1  0.29090000  0.58940000  0.38690000  1
  C  C772  1  0.28550000  0.65650000  0.48350000  1
  C  C773  1  0.33900000  0.65410000  0.43260000  1
  C  C774  1  0.30110000  0.63860000  0.44400000  1
  C  C775  1  0.35720000  0.58010000  0.34220000  1
  C  C776  1  0.23060000  0.60230000  0.42960000  1
  C  C777  1  0.33690000  0.60150000  0.37770000  1
  C  C778  1  0.20080000  0.59970000  0.39760000  1
  C  C779  1  0.30540000  0.65060000  0.51870000  1
  C  C780  1  0.27380000  0.61260000  0.42130000  1
  C  C781  1  0.29790000  0.66800000  0.55700000  1
  C  C782  1  0.23740000  0.69730000  0.52120000  1
  C  C783  1  0.25120000  0.67930000  0.48240000  1
  C  C784  1  0.35560000  0.63580000  0.39850000  1
  C  C785  1  0.24910000  0.71130000  0.59550000  1
  C  C786  1  0.69250000  0.90820000  0.23710000  1
  C  C787  1  0.65180000  0.91450000  0.24160000  1
  C  C788  1  0.85030000  0.08060000  0.05240000  1
  C  C789  1  0.89140000  0.07050000  0.04320000  1
  C  C790  1  0.65990000  0.04080000  0.17500000  1
  C  C791  1  0.70220000  0.97970000  0.22040000  1
  C  C792  1  0.66110000  0.98600000  0.22190000  1
  C  C793  1  0.64180000  0.02510000  0.20570000  1
  C  C794  1  0.70890000  0.86830000  0.24120000  1
  C  C795  1  0.73740000  0.19300000  0.94420000  1
  C  C796  1  0.71810000  0.94080000  0.22830000  1
  C  C797  1  0.78160000  0.08710000  0.03120000  1
  C  C798  1  0.63460000  0.95320000  0.22920000  1
  C  C799  1  0.84010000  0.08970000  0.09450000  1
  C  C800  1  0.81930000  0.07920000  0.02290000  1
  C  C801  1  0.70910000  0.08940000  0.11310000  1
  C  C802  1  0.71450000  0.15650000  0.01650000  1
  C  C803  1  0.66100000  0.15410000  0.06740000  1
  C  C804  1  0.69890000  0.13860000  0.05600000  1
  C  C805  1  0.64280000  0.08010000  0.15780000  1
  C  C806  1  0.76940000  0.10230000  0.07040000  1
  C  C807  1  0.66310000  0.10150000  0.12230000  1
  C  C808  1  0.79920000  0.09970000  0.10240000  1
  C  C809  1  0.69460000  0.15060000  0.98130000  1
  C  C810  1  0.72620000  0.11260000  0.07870000  1
  C  C811  1  0.70210000  0.16800000  0.94300000  1
  C  C812  1  0.76260000  0.19730000  0.97880000  1
  C  C813  1  0.74880000  0.17930000  0.01760000  1
  C  C814  1  0.64440000  0.13580000  0.10150000  1
  C  C815  1  0.75090000  0.21130000  0.90450000  1
  C  C816  1  0.05750000  0.48710000  0.65820000  1
  C  C817  1  0.09820000  0.49160000  0.66450000  1
  C  C818  1  0.89970000  0.30240000  0.83060000  1
  C  C819  1  0.85860000  0.29320000  0.82050000  1
  C  C820  1  0.09010000  0.42500000  0.79080000  1
  C  C821  1  0.04780000  0.47040000  0.72970000  1
  C  C822  1  0.08890000  0.47190000  0.73600000  1
  C  C823  1  0.10820000  0.45570000  0.77510000  1
  C  C824  1  0.04110000  0.49120000  0.61830000  1
  C  C825  1  0.01260000  0.19420000  0.94300000  1
  C  C826  1  0.03190000  0.47830000  0.69080000  1
  C  C827  1  0.96840000  0.28120000  0.83710000  1
  C  C828  1  0.11540000  0.47920000  0.70320000  1
  C  C829  1  0.90990000  0.34450000  0.83970000  1
  C  C830  1  0.93070000  0.27290000  0.82920000  1
  C  C831  1  0.04090000  0.36310000  0.83940000  1
  C  C832  1  0.03550000  0.26650000  0.90650000  1
  C  C833  1  0.08900000  0.31740000  0.90410000  1
  C  C834  1  0.05110000  0.30600000  0.88860000  1
  C  C835  1  0.10720000  0.40780000  0.83010000  1
  C  C836  1  0.98060000  0.32040000  0.85230000  1
  C  C837  1  0.08690000  0.37230000  0.85150000  1
  C  C838  1  0.95080000  0.35240000  0.84970000  1
  C  C839  1  0.05540000  0.23130000  0.90060000  1
  C  C840  1  0.02380000  0.32870000  0.86260000  1
  C  C841  1  0.04790000  0.19300000  0.91800000  1
  C  C842  1  0.98740000  0.22880000  0.94730000  1
  C  C843  1  0.00120000  0.26760000  0.92930000  1
  C  C844  1  0.10560000  0.35150000  0.88580000  1
  C  C845  1  0.99910000  0.15450000  0.96130000  1
  C  C846  1  0.44250000  0.51290000  0.15820000  1
  C  C847  1  0.40180000  0.50840000  0.16450000  1
  C  C848  1  0.60030000  0.69760000  0.33060000  1
  C  C849  1  0.64140000  0.70680000  0.32050000  1
  C  C850  1  0.40990000  0.57500000  0.29080000  1
  C  C851  1  0.45220000  0.52960000  0.22970000  1
  C  C852  1  0.41110000  0.52810000  0.23600000  1
  C  C853  1  0.39180000  0.54430000  0.27510000  1
  C  C854  1  0.45890000  0.50880000  0.11830000  1
  C  C855  1  0.48740000  0.80580000  0.44300000  1
  C  C856  1  0.46810000  0.52170000  0.19080000  1
  C  C857  1  0.53160000  0.71880000  0.33710000  1
  C  C858  1  0.38460000  0.52080000  0.20320000  1
  C  C859  1  0.59010000  0.65550000  0.33970000  1
  C  C860  1  0.56930000  0.72710000  0.32920000  1
  C  C861  1  0.45910000  0.63690000  0.33940000  1
  C  C862  1  0.46450000  0.73350000  0.40650000  1
  C  C863  1  0.41100000  0.68260000  0.40410000  1
  C  C864  1  0.44890000  0.69400000  0.38860000  1
  C  C865  1  0.39280000  0.59220000  0.33010000  1
  C  C866  1  0.51940000  0.67960000  0.35230000  1
  C  C867  1  0.41310000  0.62770000  0.35150000  1
  C  C868  1  0.54920000  0.64760000  0.34970000  1
  C  C869  1  0.44460000  0.76870000  0.40060000  1
  C  C870  1  0.47620000  0.67130000  0.36260000  1
  C  C871  1  0.45210000  0.80700000  0.41800000  1
  C  C872  1  0.51260000  0.77120000  0.44730000  1
  C  C873  1  0.49880000  0.73240000  0.42930000  1
  C  C874  1  0.39440000  0.64850000  0.38580000  1
  C  C875  1  0.50090000  0.84550000  0.46130000  1
  C  C876  1  0.55750000  0.01290000  0.34180000  1
  C  C877  1  0.59820000  0.00840000  0.33550000  1
  C  C878  1  0.39970000  0.19760000  0.16940000  1
  C  C879  1  0.35860000  0.20680000  0.17950000  1
  C  C880  1  0.59010000  0.07500000  0.20920000  1
  C  C881  1  0.54780000  0.02960000  0.27030000  1
  C  C882  1  0.58890000  0.02810000  0.26400000  1
  C  C883  1  0.60820000  0.04430000  0.22490000  1
  C  C884  1  0.54110000  0.00880000  0.38170000  1
  C  C885  1  0.51260000  0.30580000  0.05700000  1
  C  C886  1  0.53190000  0.02170000  0.30920000  1
  C  C887  1  0.46840000  0.21880000  0.16290000  1
  C  C888  1  0.61540000  0.02080000  0.29680000  1
  C  C889  1  0.40990000  0.15550000  0.16030000  1
  C  C890  1  0.43070000  0.22710000  0.17080000  1
  C  C891  1  0.54090000  0.13690000  0.16060000  1
  C  C892  1  0.53550000  0.23350000  0.09350000  1
  C  C893  1  0.58900000  0.18260000  0.09590000  1
  C  C894  1  0.55110000  0.19400000  0.11140000  1
  C  C895  1  0.60720000  0.09220000  0.16990000  1
  C  C896  1  0.48060000  0.17960000  0.14770000  1
  C  C897  1  0.58690000  0.12770000  0.14850000  1
  C  C898  1  0.45080000  0.14760000  0.15030000  1
  C  C899  1  0.55540000  0.26870000  0.09940000  1
  C  C900  1  0.52380000  0.17130000  0.13740000  1
  C  C901  1  0.54790000  0.30700000  0.08200000  1
  C  C902  1  0.48740000  0.27120000  0.05270000  1
  C  C903  1  0.50120000  0.23240000  0.07070000  1
  C  C904  1  0.60560000  0.14850000  0.11420000  1
  C  C905  1  0.49910000  0.34550000  0.03870000  1
  C  C906  1  0.94250000  0.98710000  0.84180000  1
  C  C907  1  0.90180000  0.99160000  0.83550000  1
  C  C908  1  0.10030000  0.80240000  0.66940000  1
  C  C909  1  0.14140000  0.79320000  0.67950000  1
  C  C910  1  0.90990000  0.92500000  0.70920000  1
  C  C911  1  0.95220000  0.97040000  0.77030000  1
  C  C912  1  0.91110000  0.97190000  0.76400000  1
  C  C913  1  0.89180000  0.95570000  0.72490000  1
  C  C914  1  0.95890000  0.99120000  0.88170000  1
  C  C915  1  0.98740000  0.69420000  0.55700000  1
  C  C916  1  0.96810000  0.97830000  0.80920000  1
  C  C917  1  0.03160000  0.78120000  0.66290000  1
  C  C918  1  0.88460000  0.97920000  0.79680000  1
  C  C919  1  0.09010000  0.84450000  0.66030000  1
  C  C920  1  0.06930000  0.77290000  0.67080000  1
  C  C921  1  0.95910000  0.86310000  0.66060000  1
  C  C922  1  0.96450000  0.76650000  0.59350000  1
  C  C923  1  0.91100000  0.81740000  0.59590000  1
  C  C924  1  0.94890000  0.80600000  0.61140000  1
  C  C925  1  0.89280000  0.90780000  0.66990000  1
  C  C926  1  0.01940000  0.82040000  0.64770000  1
  C  C927  1  0.91310000  0.87230000  0.64850000  1
  C  C928  1  0.04920000  0.85240000  0.65030000  1
  C  C929  1  0.94460000  0.73130000  0.59940000  1
  C  C930  1  0.97620000  0.82870000  0.63740000  1
  C  C931  1  0.95210000  0.69300000  0.58200000  1
  C  C932  1  0.01260000  0.72880000  0.55270000  1
  C  C933  1  0.99880000  0.76760000  0.57070000  1
  C  C934  1  0.89440000  0.85150000  0.61420000  1
  C  C935  1  0.00090000  0.65450000  0.53870000  1
  C  C936  1  0.98710000  0.84180000  0.94250000  1
  C  C937  1  0.99160000  0.83550000  0.90180000  1
  C  C938  1  0.80240000  0.66940000  0.10030000  1
  C  C939  1  0.79320000  0.67950000  0.14140000  1
  C  C940  1  0.92500000  0.70920000  0.90990000  1
  C  C941  1  0.97040000  0.77030000  0.95220000  1
  C  C942  1  0.97190000  0.76400000  0.91110000  1
  C  C943  1  0.95570000  0.72490000  0.89180000  1
  C  C944  1  0.99120000  0.88170000  0.95890000  1
  C  C945  1  0.69420000  0.55700000  0.98740000  1
  C  C946  1  0.97830000  0.80920000  0.96810000  1
  C  C947  1  0.78120000  0.66290000  0.03160000  1
  C  C948  1  0.97920000  0.79680000  0.88460000  1
  C  C949  1  0.84450000  0.66030000  0.09010000  1
  C  C950  1  0.77290000  0.67080000  0.06930000  1
  C  C951  1  0.86310000  0.66060000  0.95910000  1
  C  C952  1  0.76650000  0.59350000  0.96450000  1
  C  C953  1  0.81740000  0.59590000  0.91100000  1
  C  C954  1  0.80600000  0.61140000  0.94890000  1
  C  C955  1  0.90780000  0.66990000  0.89280000  1
  C  C956  1  0.82040000  0.64770000  0.01940000  1
  C  C957  1  0.87230000  0.64850000  0.91310000  1
  C  C958  1  0.85240000  0.65030000  0.04920000  1
  C  C959  1  0.73130000  0.59940000  0.94460000  1
  C  C960  1  0.82870000  0.63740000  0.97620000  1
  C  C961  1  0.69300000  0.58200000  0.95210000  1
  C  C962  1  0.72880000  0.55270000  0.01260000  1
  C  C963  1  0.76760000  0.57070000  0.99880000  1
  C  C964  1  0.85150000  0.61420000  0.89440000  1
  C  C965  1  0.65450000  0.53870000  0.00090000  1
  C  C966  1  0.01290000  0.34180000  0.55750000  1
  C  C967  1  0.00840000  0.33550000  0.59820000  1
  C  C968  1  0.19760000  0.16940000  0.39970000  1
  C  C969  1  0.20680000  0.17950000  0.35860000  1
  C  C970  1  0.07500000  0.20920000  0.59010000  1
  C  C971  1  0.02960000  0.27030000  0.54780000  1
  C  C972  1  0.02810000  0.26400000  0.58890000  1
  C  C973  1  0.04430000  0.22490000  0.60820000  1
  C  C974  1  0.00880000  0.38170000  0.54110000  1
  C  C975  1  0.30580000  0.05700000  0.51260000  1
  C  C976  1  0.02170000  0.30920000  0.53190000  1
  C  C977  1  0.21880000  0.16290000  0.46840000  1
  C  C978  1  0.02080000  0.29680000  0.61540000  1
  C  C979  1  0.15550000  0.16030000  0.40990000  1
  C  C980  1  0.22710000  0.17080000  0.43070000  1
  C  C981  1  0.13690000  0.16060000  0.54090000  1
  C  C982  1  0.23350000  0.09350000  0.53550000  1
  C  C983  1  0.18260000  0.09590000  0.58900000  1
  C  C984  1  0.19400000  0.11140000  0.55110000  1
  C  C985  1  0.09220000  0.16990000  0.60720000  1
  C  C986  1  0.17960000  0.14770000  0.48060000  1
  C  C987  1  0.12770000  0.14850000  0.58690000  1
  C  C988  1  0.14760000  0.15030000  0.45080000  1
  C  C989  1  0.26870000  0.09940000  0.55540000  1
  C  C990  1  0.17130000  0.13740000  0.52380000  1
  C  C991  1  0.30700000  0.08200000  0.54790000  1
  C  C992  1  0.27120000  0.05270000  0.48740000  1
  C  C993  1  0.23240000  0.07070000  0.50120000  1
  C  C994  1  0.14850000  0.11420000  0.60560000  1
  C  C995  1  0.34550000  0.03870000  0.49910000  1
  C  C996  1  0.51290000  0.15820000  0.44250000  1
  C  C997  1  0.50840000  0.16450000  0.40180000  1
  C  C998  1  0.69760000  0.33060000  0.60030000  1
  C  C999  1  0.70680000  0.32050000  0.64140000  1
  C  C1000  1  0.57500000  0.29080000  0.40990000  1
  C  C1001  1  0.52960000  0.22970000  0.45220000  1
  C  C1002  1  0.52810000  0.23600000  0.41110000  1
  C  C1003  1  0.54430000  0.27510000  0.39180000  1
  C  C1004  1  0.50880000  0.11830000  0.45890000  1
  C  C1005  1  0.80580000  0.44300000  0.48740000  1
  C  C1006  1  0.52170000  0.19080000  0.46810000  1
  C  C1007  1  0.71880000  0.33710000  0.53160000  1
  C  C1008  1  0.52080000  0.20320000  0.38460000  1
  C  C1009  1  0.65550000  0.33970000  0.59010000  1
  C  C1010  1  0.72710000  0.32920000  0.56930000  1
  C  C1011  1  0.63690000  0.33940000  0.45910000  1
  C  C1012  1  0.73350000  0.40650000  0.46450000  1
  C  C1013  1  0.68260000  0.40410000  0.41100000  1
  C  C1014  1  0.69400000  0.38860000  0.44890000  1
  C  C1015  1  0.59220000  0.33010000  0.39280000  1
  C  C1016  1  0.67960000  0.35230000  0.51940000  1
  C  C1017  1  0.62770000  0.35150000  0.41310000  1
  C  C1018  1  0.64760000  0.34970000  0.54920000  1
  C  C1019  1  0.76870000  0.40060000  0.44460000  1
  C  C1020  1  0.67130000  0.36260000  0.47620000  1
  C  C1021  1  0.80700000  0.41800000  0.45210000  1
  C  C1022  1  0.77120000  0.44730000  0.51260000  1
  C  C1023  1  0.73240000  0.42930000  0.49880000  1
  C  C1024  1  0.64850000  0.38580000  0.39440000  1
  C  C1025  1  0.84550000  0.46130000  0.50090000  1
  C  C1026  1  0.48710000  0.65820000  0.05750000  1
  C  C1027  1  0.49160000  0.66450000  0.09820000  1
  C  C1028  1  0.30240000  0.83060000  0.89970000  1
  C  C1029  1  0.29320000  0.82050000  0.85860000  1
  C  C1030  1  0.42500000  0.79080000  0.09010000  1
  C  C1031  1  0.47040000  0.72970000  0.04780000  1
  C  C1032  1  0.47190000  0.73600000  0.08890000  1
  C  C1033  1  0.45570000  0.77510000  0.10820000  1
  C  C1034  1  0.49120000  0.61830000  0.04110000  1
  C  C1035  1  0.19420000  0.94300000  0.01260000  1
  C  C1036  1  0.47830000  0.69080000  0.03190000  1
  C  C1037  1  0.28120000  0.83710000  0.96840000  1
  C  C1038  1  0.47920000  0.70320000  0.11540000  1
  C  C1039  1  0.34450000  0.83970000  0.90990000  1
  C  C1040  1  0.27290000  0.82920000  0.93070000  1
  C  C1041  1  0.36310000  0.83940000  0.04090000  1
  C  C1042  1  0.26650000  0.90650000  0.03550000  1
  C  C1043  1  0.31740000  0.90410000  0.08900000  1
  C  C1044  1  0.30600000  0.88860000  0.05110000  1
  C  C1045  1  0.40780000  0.83010000  0.10720000  1
  C  C1046  1  0.32040000  0.85230000  0.98060000  1
  C  C1047  1  0.37230000  0.85150000  0.08690000  1
  C  C1048  1  0.35240000  0.84970000  0.95080000  1
  C  C1049  1  0.23130000  0.90060000  0.05540000  1
  C  C1050  1  0.32870000  0.86260000  0.02380000  1
  C  C1051  1  0.19300000  0.91800000  0.04790000  1
  C  C1052  1  0.22880000  0.94730000  0.98740000  1
  C  C1053  1  0.26760000  0.92930000  0.00120000  1
  C  C1054  1  0.35150000  0.88580000  0.10560000  1
  C  C1055  1  0.15450000  0.96130000  0.99910000  1
  C  C1056  1  0.34180000  0.55750000  0.01290000  1
  C  C1057  1  0.33550000  0.59820000  0.00840000  1
  C  C1058  1  0.16940000  0.39970000  0.19760000  1
  C  C1059  1  0.17950000  0.35860000  0.20680000  1
  C  C1060  1  0.20920000  0.59010000  0.07500000  1
  C  C1061  1  0.27030000  0.54780000  0.02960000  1
  C  C1062  1  0.26400000  0.58890000  0.02810000  1
  C  C1063  1  0.22490000  0.60820000  0.04430000  1
  C  C1064  1  0.38170000  0.54110000  0.00880000  1
  C  C1065  1  0.05700000  0.51260000  0.30580000  1
  C  C1066  1  0.30920000  0.53190000  0.02170000  1
  C  C1067  1  0.16290000  0.46840000  0.21880000  1
  C  C1068  1  0.29680000  0.61540000  0.02080000  1
  C  C1069  1  0.16030000  0.40990000  0.15550000  1
  C  C1070  1  0.17080000  0.43070000  0.22710000  1
  C  C1071  1  0.16060000  0.54090000  0.13690000  1
  C  C1072  1  0.09350000  0.53550000  0.23350000  1
  C  C1073  1  0.09590000  0.58900000  0.18260000  1
  C  C1074  1  0.11140000  0.55110000  0.19400000  1
  C  C1075  1  0.16990000  0.60720000  0.09220000  1
  C  C1076  1  0.14770000  0.48060000  0.17960000  1
  C  C1077  1  0.14850000  0.58690000  0.12770000  1
  C  C1078  1  0.15030000  0.45080000  0.14760000  1
  C  C1079  1  0.09940000  0.55540000  0.26870000  1
  C  C1080  1  0.13740000  0.52380000  0.17130000  1
  C  C1081  1  0.08200000  0.54790000  0.30700000  1
  C  C1082  1  0.05270000  0.48740000  0.27120000  1
  C  C1083  1  0.07070000  0.50120000  0.23240000  1
  C  C1084  1  0.11420000  0.60560000  0.14850000  1
  C  C1085  1  0.03870000  0.49910000  0.34550000  1
  C  C1086  1  0.84180000  0.94250000  0.98710000  1
  C  C1087  1  0.83550000  0.90180000  0.99160000  1
  C  C1088  1  0.66940000  0.10030000  0.80240000  1
  C  C1089  1  0.67950000  0.14140000  0.79320000  1
  C  C1090  1  0.70920000  0.90990000  0.92500000  1
  C  C1091  1  0.77030000  0.95220000  0.97040000  1
  C  C1092  1  0.76400000  0.91110000  0.97190000  1
  C  C1093  1  0.72490000  0.89180000  0.95570000  1
  C  C1094  1  0.88170000  0.95890000  0.99120000  1
  C  C1095  1  0.55700000  0.98740000  0.69420000  1
  C  C1096  1  0.80920000  0.96810000  0.97830000  1
  C  C1097  1  0.66290000  0.03160000  0.78120000  1
  C  C1098  1  0.79680000  0.88460000  0.97920000  1
  C  C1099  1  0.66030000  0.09010000  0.84450000  1
  C  C1100  1  0.67080000  0.06930000  0.77290000  1
  C  C1101  1  0.66060000  0.95910000  0.86310000  1
  C  C1102  1  0.59350000  0.96450000  0.76650000  1
  C  C1103  1  0.59590000  0.91100000  0.81740000  1
  C  C1104  1  0.61140000  0.94890000  0.80600000  1
  C  C1105  1  0.66990000  0.89280000  0.90780000  1
  C  C1106  1  0.64770000  0.01940000  0.82040000  1
  C  C1107  1  0.64850000  0.91310000  0.87230000  1
  C  C1108  1  0.65030000  0.04920000  0.85240000  1
  C  C1109  1  0.59940000  0.94460000  0.73130000  1
  C  C1110  1  0.63740000  0.97620000  0.82870000  1
  C  C1111  1  0.58200000  0.95210000  0.69300000  1
  C  C1112  1  0.55270000  0.01260000  0.72880000  1
  C  C1113  1  0.57070000  0.99880000  0.76760000  1
  C  C1114  1  0.61420000  0.89440000  0.85150000  1
  C  C1115  1  0.53870000  0.00090000  0.65450000  1
  C  C1116  1  0.65820000  0.05750000  0.48710000  1
  C  C1117  1  0.66450000  0.09820000  0.49160000  1
  C  C1118  1  0.83060000  0.89970000  0.30240000  1
  C  C1119  1  0.82050000  0.85860000  0.29320000  1
  C  C1120  1  0.79080000  0.09010000  0.42500000  1
  C  C1121  1  0.72970000  0.04780000  0.47040000  1
  C  C1122  1  0.73600000  0.08890000  0.47190000  1
  C  C1123  1  0.77510000  0.10820000  0.45570000  1
  C  C1124  1  0.61830000  0.04110000  0.49120000  1
  C  C1125  1  0.94300000  0.01260000  0.19420000  1
  C  C1126  1  0.69080000  0.03190000  0.47830000  1
  C  C1127  1  0.83710000  0.96840000  0.28120000  1
  C  C1128  1  0.70320000  0.11540000  0.47920000  1
  C  C1129  1  0.83970000  0.90990000  0.34450000  1
  C  C1130  1  0.82920000  0.93070000  0.27290000  1
  C  C1131  1  0.83940000  0.04090000  0.36310000  1
  C  C1132  1  0.90650000  0.03550000  0.26650000  1
  C  C1133  1  0.90410000  0.08900000  0.31740000  1
  C  C1134  1  0.88860000  0.05110000  0.30600000  1
  C  C1135  1  0.83010000  0.10720000  0.40780000  1
  C  C1136  1  0.85230000  0.98060000  0.32040000  1
  C  C1137  1  0.85150000  0.08690000  0.37230000  1
  C  C1138  1  0.84970000  0.95080000  0.35240000  1
  C  C1139  1  0.90060000  0.05540000  0.23130000  1
  C  C1140  1  0.86260000  0.02380000  0.32870000  1
  C  C1141  1  0.91800000  0.04790000  0.19300000  1
  C  C1142  1  0.94730000  0.98740000  0.22880000  1
  C  C1143  1  0.92930000  0.00120000  0.26760000  1
  C  C1144  1  0.88580000  0.10560000  0.35150000  1
  C  C1145  1  0.96130000  0.99910000  0.15450000  1
  C  C1146  1  0.15820000  0.44250000  0.51290000  1
  C  C1147  1  0.16450000  0.40180000  0.50840000  1
  C  C1148  1  0.33060000  0.60030000  0.69760000  1
  C  C1149  1  0.32050000  0.64140000  0.70680000  1
  C  C1150  1  0.29080000  0.40990000  0.57500000  1
  C  C1151  1  0.22970000  0.45220000  0.52960000  1
  C  C1152  1  0.23600000  0.41110000  0.52810000  1
  C  C1153  1  0.27510000  0.39180000  0.54430000  1
  C  C1154  1  0.11830000  0.45890000  0.50880000  1
  C  C1155  1  0.44300000  0.48740000  0.80580000  1
  C  C1156  1  0.19080000  0.46810000  0.52170000  1
  C  C1157  1  0.33710000  0.53160000  0.71880000  1
  C  C1158  1  0.20320000  0.38460000  0.52080000  1
  C  C1159  1  0.33970000  0.59010000  0.65550000  1
  C  C1160  1  0.32920000  0.56930000  0.72710000  1
  C  C1161  1  0.33940000  0.45910000  0.63690000  1
  C  C1162  1  0.40650000  0.46450000  0.73350000  1
  C  C1163  1  0.40410000  0.41100000  0.68260000  1
  C  C1164  1  0.38860000  0.44890000  0.69400000  1
  C  C1165  1  0.33010000  0.39280000  0.59220000  1
  C  C1166  1  0.35230000  0.51940000  0.67960000  1
  C  C1167  1  0.35150000  0.41310000  0.62770000  1
  C  C1168  1  0.34970000  0.54920000  0.64760000  1
  C  C1169  1  0.40060000  0.44460000  0.76870000  1
  C  C1170  1  0.36260000  0.47620000  0.67130000  1
  C  C1171  1  0.41800000  0.45210000  0.80700000  1
  C  C1172  1  0.44730000  0.51260000  0.77120000  1
  C  C1173  1  0.42930000  0.49880000  0.73240000  1
  C  C1174  1  0.38580000  0.39440000  0.64850000  1
  C  C1175  1  0.46130000  0.50090000  0.84550000  1
  O  O1176  1  0.26188000  0.82830000  0.77062000  1
  O  O1177  1  0.28180000  0.75661000  0.79345000  1
  O  O1178  1  0.57110000  0.58093000  0.93030000  1
  O  O1179  1  0.50650000  0.60170000  0.93410000  1
  O  O1180  1  0.72680000  0.75790000  0.13980000  1
  O  O1181  1  0.76130000  0.81250000  0.15850000  1
  O  O1182  1  0.18730000  0.83730000  0.81720000  1
  O  O1183  1  0.37610000  0.77330000  0.79390000  1
  O  O1184  1  0.34200000  0.85900000  0.75930000  1
  O  O1185  1  0.37520000  0.80200000  0.71860000  1
  O  O1186  1  0.40720000  0.71960000  0.75440000  1
  O  O1187  1  0.23812000  0.17170000  0.27062000  1
  O  O1188  1  0.21820000  0.24339000  0.29345000  1
  O  O1189  1  0.92890000  0.41907000  0.43030000  1
  O  O1190  1  0.99350000  0.39830000  0.43410000  1
  O  O1191  1  0.77320000  0.24210000  0.63980000  1
  O  O1192  1  0.73870000  0.18750000  0.65850000  1
  O  O1193  1  0.31270000  0.16270000  0.31720000  1
  O  O1194  1  0.12390000  0.22670000  0.29390000  1
  O  O1195  1  0.15800000  0.14100000  0.25930000  1
  O  O1196  1  0.12480000  0.19800000  0.21860000  1
  O  O1197  1  0.09280000  0.28040000  0.25440000  1
  O  O1198  1  0.73812000  0.32830000  0.72938000  1
  O  O1199  1  0.71820000  0.25661000  0.70655000  1
  O  O1200  1  0.42890000  0.08093000  0.56970000  1
  O  O1201  1  0.49350000  0.10170000  0.56590000  1
  O  O1202  1  0.27320000  0.25790000  0.36020000  1
  O  O1203  1  0.23870000  0.31250000  0.34150000  1
  O  O1204  1  0.81270000  0.33730000  0.68280000  1
  O  O1205  1  0.62390000  0.27330000  0.70610000  1
  O  O1206  1  0.65800000  0.35900000  0.74070000  1
  O  O1207  1  0.62480000  0.30200000  0.78140000  1
  O  O1208  1  0.59280000  0.21960000  0.74560000  1
  O  O1209  1  0.76188000  0.67170000  0.22938000  1
  O  O1210  1  0.78180000  0.74339000  0.20655000  1
  O  O1211  1  0.07110000  0.91907000  0.06970000  1
  O  O1212  1  0.00650000  0.89830000  0.06590000  1
  O  O1213  1  0.22680000  0.74210000  0.86020000  1
  O  O1214  1  0.26130000  0.68750000  0.84150000  1
  O  O1215  1  0.68730000  0.66270000  0.18280000  1
  O  O1216  1  0.87610000  0.72670000  0.20610000  1
  O  O1217  1  0.84200000  0.64100000  0.24070000  1
  O  O1218  1  0.87520000  0.69800000  0.28140000  1
  O  O1219  1  0.90720000  0.78040000  0.24560000  1
  O  O1220  1  0.77062000  0.26188000  0.82830000  1
  O  O1221  1  0.79345000  0.28180000  0.75661000  1
  O  O1222  1  0.93030000  0.57110000  0.58093000  1
  O  O1223  1  0.93410000  0.50650000  0.60170000  1
  O  O1224  1  0.13980000  0.72680000  0.75790000  1
  O  O1225  1  0.15850000  0.76130000  0.81250000  1
  O  O1226  1  0.81720000  0.18730000  0.83730000  1
  O  O1227  1  0.79390000  0.37610000  0.77330000  1
  O  O1228  1  0.75930000  0.34200000  0.85900000  1
  O  O1229  1  0.71860000  0.37520000  0.80200000  1
  O  O1230  1  0.75440000  0.40720000  0.71960000  1
  O  O1231  1  0.27062000  0.23812000  0.17170000  1
  O  O1232  1  0.29345000  0.21820000  0.24339000  1
  O  O1233  1  0.43030000  0.92890000  0.41907000  1
  O  O1234  1  0.43410000  0.99350000  0.39830000  1
  O  O1235  1  0.63980000  0.77320000  0.24210000  1
  O  O1236  1  0.65850000  0.73870000  0.18750000  1
  O  O1237  1  0.31720000  0.31270000  0.16270000  1
  O  O1238  1  0.29390000  0.12390000  0.22670000  1
  O  O1239  1  0.25930000  0.15800000  0.14100000  1
  O  O1240  1  0.21860000  0.12480000  0.19800000  1
  O  O1241  1  0.25440000  0.09280000  0.28040000  1
  O  O1242  1  0.72938000  0.73812000  0.32830000  1
  O  O1243  1  0.70655000  0.71820000  0.25661000  1
  O  O1244  1  0.56970000  0.42890000  0.08093000  1
  O  O1245  1  0.56590000  0.49350000  0.10170000  1
  O  O1246  1  0.36020000  0.27320000  0.25790000  1
  O  O1247  1  0.34150000  0.23870000  0.31250000  1
  O  O1248  1  0.68280000  0.81270000  0.33730000  1
  O  O1249  1  0.70610000  0.62390000  0.27330000  1
  O  O1250  1  0.74070000  0.65800000  0.35900000  1
  O  O1251  1  0.78140000  0.62480000  0.30200000  1
  O  O1252  1  0.74560000  0.59280000  0.21960000  1
  O  O1253  1  0.22938000  0.76188000  0.67170000  1
  O  O1254  1  0.20655000  0.78180000  0.74339000  1
  O  O1255  1  0.06970000  0.07110000  0.91907000  1
  O  O1256  1  0.06590000  0.00650000  0.89830000  1
  O  O1257  1  0.86020000  0.22680000  0.74210000  1
  O  O1258  1  0.84150000  0.26130000  0.68750000  1
  O  O1259  1  0.18280000  0.68730000  0.66270000  1
  O  O1260  1  0.20610000  0.87610000  0.72670000  1
  O  O1261  1  0.24070000  0.84200000  0.64100000  1
  O  O1262  1  0.28140000  0.87520000  0.69800000  1
  O  O1263  1  0.24560000  0.90720000  0.78040000  1
  O  O1264  1  0.82830000  0.77062000  0.26188000  1
  O  O1265  1  0.75661000  0.79345000  0.28180000  1
  O  O1266  1  0.58093000  0.93030000  0.57110000  1
  O  O1267  1  0.60170000  0.93410000  0.50650000  1
  O  O1268  1  0.75790000  0.13980000  0.72680000  1
  O  O1269  1  0.81250000  0.15850000  0.76130000  1
  O  O1270  1  0.83730000  0.81720000  0.18730000  1
  O  O1271  1  0.77330000  0.79390000  0.37610000  1
  O  O1272  1  0.85900000  0.75930000  0.34200000  1
  O  O1273  1  0.80200000  0.71860000  0.37520000  1
  O  O1274  1  0.71960000  0.75440000  0.40720000  1
  O  O1275  1  0.17170000  0.27062000  0.23812000  1
  O  O1276  1  0.24339000  0.29345000  0.21820000  1
  O  O1277  1  0.41907000  0.43030000  0.92890000  1
  O  O1278  1  0.39830000  0.43410000  0.99350000  1
  O  O1279  1  0.24210000  0.63980000  0.77320000  1
  O  O1280  1  0.18750000  0.65850000  0.73870000  1
  O  O1281  1  0.16270000  0.31720000  0.31270000  1
  O  O1282  1  0.22670000  0.29390000  0.12390000  1
  O  O1283  1  0.14100000  0.25930000  0.15800000  1
  O  O1284  1  0.19800000  0.21860000  0.12480000  1
  O  O1285  1  0.28040000  0.25440000  0.09280000  1
  O  O1286  1  0.32830000  0.72938000  0.73812000  1
  O  O1287  1  0.25661000  0.70655000  0.71820000  1
  O  O1288  1  0.08093000  0.56970000  0.42890000  1
  O  O1289  1  0.10170000  0.56590000  0.49350000  1
  O  O1290  1  0.25790000  0.36020000  0.27320000  1
  O  O1291  1  0.31250000  0.34150000  0.23870000  1
  O  O1292  1  0.33730000  0.68280000  0.81270000  1
  O  O1293  1  0.27330000  0.70610000  0.62390000  1
  O  O1294  1  0.35900000  0.74070000  0.65800000  1
  O  O1295  1  0.30200000  0.78140000  0.62480000  1
  O  O1296  1  0.21960000  0.74560000  0.59280000  1
  O  O1297  1  0.67170000  0.22938000  0.76188000  1
  O  O1298  1  0.74339000  0.20655000  0.78180000  1
  O  O1299  1  0.91907000  0.06970000  0.07110000  1
  O  O1300  1  0.89830000  0.06590000  0.00650000  1
  O  O1301  1  0.74210000  0.86020000  0.22680000  1
  O  O1302  1  0.68750000  0.84150000  0.26130000  1
  O  O1303  1  0.66270000  0.18280000  0.68730000  1
  O  O1304  1  0.72670000  0.20610000  0.87610000  1
  O  O1305  1  0.64100000  0.24070000  0.84200000  1
  O  O1306  1  0.69800000  0.28140000  0.87520000  1
  O  O1307  1  0.78040000  0.24560000  0.90720000  1
  O  O1308  1  0.07830000  0.01188000  0.97938000  1
  O  O1309  1  0.00661000  0.03180000  0.95655000  1
  O  O1310  1  0.83093000  0.32110000  0.81970000  1
  O  O1311  1  0.85170000  0.25650000  0.81590000  1
  O  O1312  1  0.00790000  0.47680000  0.61020000  1
  O  O1313  1  0.06250000  0.51130000  0.59150000  1
  O  O1314  1  0.08730000  0.93730000  0.93280000  1
  O  O1315  1  0.02330000  0.12610000  0.95610000  1
  O  O1316  1  0.10900000  0.09200000  0.99070000  1
  O  O1317  1  0.05200000  0.12520000  0.03140000  1
  O  O1318  1  0.96960000  0.15720000  0.99560000  1
  O  O1319  1  0.42170000  0.98812000  0.47938000  1
  O  O1320  1  0.49339000  0.96820000  0.45655000  1
  O  O1321  1  0.66907000  0.67890000  0.31970000  1
  O  O1322  1  0.64830000  0.74350000  0.31590000  1
  O  O1323  1  0.49210000  0.52320000  0.11020000  1
  O  O1324  1  0.43750000  0.48870000  0.09150000  1
  O  O1325  1  0.41270000  0.06270000  0.43280000  1
  O  O1326  1  0.47670000  0.87390000  0.45610000  1
  O  O1327  1  0.39100000  0.90800000  0.49070000  1
  O  O1328  1  0.44800000  0.87480000  0.53140000  1
  O  O1329  1  0.53040000  0.84280000  0.49560000  1
  O  O1330  1  0.57830000  0.48812000  0.02062000  1
  O  O1331  1  0.50661000  0.46820000  0.04345000  1
  O  O1332  1  0.33093000  0.17890000  0.18030000  1
  O  O1333  1  0.35170000  0.24350000  0.18410000  1
  O  O1334  1  0.50790000  0.02320000  0.38980000  1
  O  O1335  1  0.56250000  0.98870000  0.40850000  1
  O  O1336  1  0.58730000  0.56270000  0.06720000  1
  O  O1337  1  0.52330000  0.37390000  0.04390000  1
  O  O1338  1  0.60900000  0.40800000  0.00930000  1
  O  O1339  1  0.55200000  0.37480000  0.96860000  1
  O  O1340  1  0.46960000  0.34280000  0.00440000  1
  O  O1341  1  0.92170000  0.51188000  0.52062000  1
  O  O1342  1  0.99339000  0.53180000  0.54345000  1
  O  O1343  1  0.16907000  0.82110000  0.68030000  1
  O  O1344  1  0.14830000  0.75650000  0.68410000  1
  O  O1345  1  0.99210000  0.97680000  0.88980000  1
  O  O1346  1  0.93750000  0.01130000  0.90850000  1
  O  O1347  1  0.91270000  0.43730000  0.56720000  1
  O  O1348  1  0.97670000  0.62610000  0.54390000  1
  O  O1349  1  0.89100000  0.59200000  0.50930000  1
  O  O1350  1  0.94800000  0.62520000  0.46860000  1
  O  O1351  1  0.03040000  0.65720000  0.50440000  1
  O  O1352  1  0.51188000  0.52062000  0.92170000  1
  O  O1353  1  0.53180000  0.54345000  0.99339000  1
  O  O1354  1  0.82110000  0.68030000  0.16907000  1
  O  O1355  1  0.75650000  0.68410000  0.14830000  1
  O  O1356  1  0.97680000  0.88980000  0.99210000  1
  O  O1357  1  0.01130000  0.90850000  0.93750000  1
  O  O1358  1  0.43730000  0.56720000  0.91270000  1
  O  O1359  1  0.62610000  0.54390000  0.97670000  1
  O  O1360  1  0.59200000  0.50930000  0.89100000  1
  O  O1361  1  0.62520000  0.46860000  0.94800000  1
  O  O1362  1  0.65720000  0.50440000  0.03040000  1
  O  O1363  1  0.48812000  0.02062000  0.57830000  1
  O  O1364  1  0.46820000  0.04345000  0.50661000  1
  O  O1365  1  0.17890000  0.18030000  0.33093000  1
  O  O1366  1  0.24350000  0.18410000  0.35170000  1
  O  O1367  1  0.02320000  0.38980000  0.50790000  1
  O  O1368  1  0.98870000  0.40850000  0.56250000  1
  O  O1369  1  0.56270000  0.06720000  0.58730000  1
  O  O1370  1  0.37390000  0.04390000  0.52330000  1
  O  O1371  1  0.40800000  0.00930000  0.60900000  1
  O  O1372  1  0.37480000  0.96860000  0.55200000  1
  O  O1373  1  0.34280000  0.00440000  0.46960000  1
  O  O1374  1  0.98812000  0.47938000  0.42170000  1
  O  O1375  1  0.96820000  0.45655000  0.49339000  1
  O  O1376  1  0.67890000  0.31970000  0.66907000  1
  O  O1377  1  0.74350000  0.31590000  0.64830000  1
  O  O1378  1  0.52320000  0.11020000  0.49210000  1
  O  O1379  1  0.48870000  0.09150000  0.43750000  1
  O  O1380  1  0.06270000  0.43280000  0.41270000  1
  O  O1381  1  0.87390000  0.45610000  0.47670000  1
  O  O1382  1  0.90800000  0.49070000  0.39100000  1
  O  O1383  1  0.87480000  0.53140000  0.44800000  1
  O  O1384  1  0.84280000  0.49560000  0.53040000  1
  O  O1385  1  0.01188000  0.97938000  0.07830000  1
  O  O1386  1  0.03180000  0.95655000  0.00661000  1
  O  O1387  1  0.32110000  0.81970000  0.83093000  1
  O  O1388  1  0.25650000  0.81590000  0.85170000  1
  O  O1389  1  0.47680000  0.61020000  0.00790000  1
  O  O1390  1  0.51130000  0.59150000  0.06250000  1
  O  O1391  1  0.93730000  0.93280000  0.08730000  1
  O  O1392  1  0.12610000  0.95610000  0.02330000  1
  O  O1393  1  0.09200000  0.99070000  0.10900000  1
  O  O1394  1  0.12520000  0.03140000  0.05200000  1
  O  O1395  1  0.15720000  0.99560000  0.96960000  1
  O  O1396  1  0.02062000  0.57830000  0.48812000  1
  O  O1397  1  0.04345000  0.50661000  0.46820000  1
  O  O1398  1  0.18030000  0.33093000  0.17890000  1
  O  O1399  1  0.18410000  0.35170000  0.24350000  1
  O  O1400  1  0.38980000  0.50790000  0.02320000  1
  O  O1401  1  0.40850000  0.56250000  0.98870000  1
  O  O1402  1  0.06720000  0.58730000  0.56270000  1
  O  O1403  1  0.04390000  0.52330000  0.37390000  1
  O  O1404  1  0.00930000  0.60900000  0.40800000  1
  O  O1405  1  0.96860000  0.55200000  0.37480000  1
  O  O1406  1  0.00440000  0.46960000  0.34280000  1
  O  O1407  1  0.52062000  0.92170000  0.51188000  1
  O  O1408  1  0.54345000  0.99339000  0.53180000  1
  O  O1409  1  0.68030000  0.16907000  0.82110000  1
  O  O1410  1  0.68410000  0.14830000  0.75650000  1
  O  O1411  1  0.88980000  0.99210000  0.97680000  1
  O  O1412  1  0.90850000  0.93750000  0.01130000  1
  O  O1413  1  0.56720000  0.91270000  0.43730000  1
  O  O1414  1  0.54390000  0.97670000  0.62610000  1
  O  O1415  1  0.50930000  0.89100000  0.59200000  1
  O  O1416  1  0.46860000  0.94800000  0.62520000  1
  O  O1417  1  0.50440000  0.03040000  0.65720000  1
  O  O1418  1  0.97938000  0.07830000  0.01188000  1
  O  O1419  1  0.95655000  0.00661000  0.03180000  1
  O  O1420  1  0.81970000  0.83093000  0.32110000  1
  O  O1421  1  0.81590000  0.85170000  0.25650000  1
  O  O1422  1  0.61020000  0.00790000  0.47680000  1
  O  O1423  1  0.59150000  0.06250000  0.51130000  1
  O  O1424  1  0.93280000  0.08730000  0.93730000  1
  O  O1425  1  0.95610000  0.02330000  0.12610000  1
  O  O1426  1  0.99070000  0.10900000  0.09200000  1
  O  O1427  1  0.03140000  0.05200000  0.12520000  1
  O  O1428  1  0.99560000  0.96960000  0.15720000  1
  O  O1429  1  0.47938000  0.42170000  0.98812000  1
  O  O1430  1  0.45655000  0.49339000  0.96820000  1
  O  O1431  1  0.31970000  0.66907000  0.67890000  1
  O  O1432  1  0.31590000  0.64830000  0.74350000  1
  O  O1433  1  0.11020000  0.49210000  0.52320000  1
  O  O1434  1  0.09150000  0.43750000  0.48870000  1
  O  O1435  1  0.43280000  0.41270000  0.06270000  1
  O  O1436  1  0.45610000  0.47670000  0.87390000  1
  O  O1437  1  0.49070000  0.39100000  0.90800000  1
  O  O1438  1  0.53140000  0.44800000  0.87480000  1
  O  O1439  1  0.49560000  0.53040000  0.84280000  1
  O  O1440  1  0.21525000  0.71525000  0.78475000  1
  O  O1441  1  0.29330000  0.79330000  0.70670000  1
  O  O1442  1  0.28475000  0.28475000  0.28475000  1
  O  O1443  1  0.20670000  0.20670000  0.20670000  1
  O  O1444  1  0.78475000  0.21525000  0.71525000  1
  O  O1445  1  0.70670000  0.29330000  0.79330000  1
  O  O1446  1  0.71525000  0.78475000  0.21525000  1
  O  O1447  1  0.79330000  0.70670000  0.29330000  1
  O  O1448  1  0.96525000  0.96525000  0.96525000  1
  O  O1449  1  0.04330000  0.04330000  0.04330000  1
  O  O1450  1  0.53475000  0.03475000  0.46525000  1
  O  O1451  1  0.45670000  0.95670000  0.54330000  1
  O  O1452  1  0.46525000  0.53475000  0.03475000  1
  O  O1453  1  0.54330000  0.45670000  0.95670000  1
  O  O1454  1  0.03475000  0.46525000  0.53475000  1
  O  O1455  1  0.95670000  0.54330000  0.45670000  1
