# generated using pymatgen
data_Zr6H63(C3O)38
_symmetry_space_group_name_H-M   'P 1'
_cell_length_a   32.88310000
_cell_length_b   32.88310000
_cell_length_c   32.88310000
_cell_angle_alpha   90.00000000
_cell_angle_beta   90.00000000
_cell_angle_gamma   90.00000000
_symmetry_Int_Tables_number   1
_chemical_formula_structural   Zr6H63(C3O)38
_chemical_formula_sum   'Zr48 H504 C912 O304'
_cell_volume   35556.43899788
_cell_formula_units_Z   8
loop_
 _symmetry_equiv_pos_site_id
 _symmetry_equiv_pos_as_xyz
  1  'x, y, z'
loop_
 _atom_site_type_symbol
 _atom_site_label
 _atom_site_symmetry_multiplicity
 _atom_site_fract_x
 _atom_site_fract_y
 _atom_site_fract_z
 _atom_site_occupancy
  Zr  Zr0  1  0.72988000  0.31582000  0.21178000  1
  Zr  Zr1  1  0.71778000  0.27523000  0.30935000  1
  Zr  Zr2  1  0.43418000  0.97988000  0.96178000  1
  Zr  Zr3  1  0.47477000  0.96778000  0.05935000  1
  Zr  Zr4  1  0.77012000  0.68418000  0.71178000  1
  Zr  Zr5  1  0.78222000  0.72477000  0.80935000  1
  Zr  Zr6  1  0.06582000  0.02012000  0.46178000  1
  Zr  Zr7  1  0.02523000  0.03222000  0.55935000  1
  Zr  Zr8  1  0.22988000  0.18418000  0.78822000  1
  Zr  Zr9  1  0.21778000  0.22477000  0.69065000  1
  Zr  Zr10  1  0.56582000  0.47988000  0.53822000  1
  Zr  Zr11  1  0.52523000  0.46778000  0.44065000  1
  Zr  Zr12  1  0.27012000  0.81582000  0.28822000  1
  Zr  Zr13  1  0.28222000  0.77523000  0.19065000  1
  Zr  Zr14  1  0.93418000  0.52012000  0.03822000  1
  Zr  Zr15  1  0.97477000  0.53222000  0.94065000  1
  Zr  Zr16  1  0.21178000  0.72988000  0.31582000  1
  Zr  Zr17  1  0.30935000  0.71778000  0.27523000  1
  Zr  Zr18  1  0.02012000  0.46178000  0.06582000  1
  Zr  Zr19  1  0.03222000  0.55935000  0.02523000  1
  Zr  Zr20  1  0.28822000  0.27012000  0.81582000  1
  Zr  Zr21  1  0.19065000  0.28222000  0.77523000  1
  Zr  Zr22  1  0.47988000  0.53822000  0.56582000  1
  Zr  Zr23  1  0.46778000  0.44065000  0.52523000  1
  Zr  Zr24  1  0.71178000  0.77012000  0.68418000  1
  Zr  Zr25  1  0.80935000  0.78222000  0.72477000  1
  Zr  Zr26  1  0.97988000  0.96178000  0.43418000  1
  Zr  Zr27  1  0.96778000  0.05935000  0.47477000  1
  Zr  Zr28  1  0.78822000  0.22988000  0.18418000  1
  Zr  Zr29  1  0.69065000  0.21778000  0.22477000  1
  Zr  Zr30  1  0.52012000  0.03822000  0.93418000  1
  Zr  Zr31  1  0.53222000  0.94065000  0.97477000  1
  Zr  Zr32  1  0.31582000  0.21178000  0.72988000  1
  Zr  Zr33  1  0.27523000  0.30935000  0.71778000  1
  Zr  Zr34  1  0.81582000  0.28822000  0.27012000  1
  Zr  Zr35  1  0.77523000  0.19065000  0.28222000  1
  Zr  Zr36  1  0.46178000  0.06582000  0.02012000  1
  Zr  Zr37  1  0.55935000  0.02523000  0.03222000  1
  Zr  Zr38  1  0.68418000  0.71178000  0.77012000  1
  Zr  Zr39  1  0.72477000  0.80935000  0.78222000  1
  Zr  Zr40  1  0.03822000  0.93418000  0.52012000  1
  Zr  Zr41  1  0.94065000  0.97477000  0.53222000  1
  Zr  Zr42  1  0.18418000  0.78822000  0.22988000  1
  Zr  Zr43  1  0.22477000  0.69065000  0.21778000  1
  Zr  Zr44  1  0.96178000  0.43418000  0.97988000  1
  Zr  Zr45  1  0.05935000  0.47477000  0.96778000  1
  Zr  Zr46  1  0.53822000  0.56582000  0.47988000  1
  Zr  Zr47  1  0.44065000  0.52523000  0.46778000  1
  H  H48  1  0.77845000  0.33325000  0.10583000  1
  H  H49  1  0.57940000  0.62245000  0.21988000  1
  H  H50  1  0.67577000  0.54933000  0.14967000  1
  H  H51  1  0.59274000  0.50534000  0.25844000  1
  H  H52  1  0.57433000  0.49101000  0.32517000  1
  H  H53  1  0.59338000  0.60815000  0.35761000  1
  H  H54  1  0.61119000  0.62236000  0.28873000  1
  H  H55  1  0.54176000  0.65925000  0.18561000  1
  H  H56  1  0.50631000  0.71303000  0.21938000  1
  H  H57  1  0.44082000  0.72477000  0.24312000  1
  H  H58  1  0.40037000  0.73799000  0.12903000  1
  H  H59  1  0.46429000  0.72234000  0.10453000  1
  H  H60  1  0.61533000  0.33666000  0.34863000  1
  H  H61  1  0.55525000  0.36962000  0.36639000  1
  H  H62  1  0.52169000  0.40826000  0.31917000  1
  H  H63  1  0.55587000  0.42993000  0.26087000  1
  H  H64  1  0.61817000  0.40131000  0.24640000  1
  H  H65  1  0.73308000  0.47543000  0.28152000  1
  H  H66  1  0.69742000  0.53437000  0.26611000  1
  H  H67  1  0.64616000  0.47721000  0.17153000  1
  H  H68  1  0.68870000  0.42174000  0.18263000  1
  H  H69  1  0.41675000  0.02845000  0.85583000  1
  H  H70  1  0.12755000  0.82940000  0.96988000  1
  H  H71  1  0.20067000  0.92577000  0.89967000  1
  H  H72  1  0.24466000  0.84274000  0.00844000  1
  H  H73  1  0.25899000  0.82433000  0.07517000  1
  H  H74  1  0.14185000  0.84338000  0.10761000  1
  H  H75  1  0.12764000  0.86119000  0.03873000  1
  H  H76  1  0.09075000  0.79176000  0.93561000  1
  H  H77  1  0.03697000  0.75631000  0.96938000  1
  H  H78  1  0.02523000  0.69082000  0.99312000  1
  H  H79  1  0.01201000  0.65037000  0.87903000  1
  H  H80  1  0.02766000  0.71429000  0.85453000  1
  H  H81  1  0.41334000  0.86533000  0.09863000  1
  H  H82  1  0.38038000  0.80525000  0.11639000  1
  H  H83  1  0.34174000  0.77169000  0.06917000  1
  H  H84  1  0.32007000  0.80587000  0.01087000  1
  H  H85  1  0.34869000  0.86817000  0.99640000  1
  H  H86  1  0.27457000  0.98308000  0.03152000  1
  H  H87  1  0.21563000  0.94742000  0.01611000  1
  H  H88  1  0.27279000  0.89616000  0.92153000  1
  H  H89  1  0.32826000  0.93870000  0.93263000  1
  H  H90  1  0.72155000  0.66675000  0.60583000  1
  H  H91  1  0.92060000  0.37755000  0.71988000  1
  H  H92  1  0.82423000  0.45067000  0.64967000  1
  H  H93  1  0.90726000  0.49466000  0.75844000  1
  H  H94  1  0.92567000  0.50899000  0.82517000  1
  H  H95  1  0.90662000  0.39185000  0.85761000  1
  H  H96  1  0.88881000  0.37764000  0.78873000  1
  H  H97  1  0.95824000  0.34075000  0.68561000  1
  H  H98  1  0.99369000  0.28697000  0.71938000  1
  H  H99  1  0.05918000  0.27523000  0.74312000  1
  H  H100  1  0.09963000  0.26201000  0.62903000  1
  H  H101  1  0.03571000  0.27766000  0.60453000  1
  H  H102  1  0.88467000  0.66334000  0.84863000  1
  H  H103  1  0.94475000  0.63038000  0.86639000  1
  H  H104  1  0.97831000  0.59174000  0.81917000  1
  H  H105  1  0.94413000  0.57007000  0.76087000  1
  H  H106  1  0.88183000  0.59869000  0.74640000  1
  H  H107  1  0.76692000  0.52457000  0.78152000  1
  H  H108  1  0.80258000  0.46563000  0.76611000  1
  H  H109  1  0.85384000  0.52279000  0.67153000  1
  H  H110  1  0.81130000  0.57826000  0.68263000  1
  H  H111  1  0.08325000  0.97155000  0.35583000  1
  H  H112  1  0.37245000  0.17060000  0.46988000  1
  H  H113  1  0.29933000  0.07423000  0.39967000  1
  H  H114  1  0.25534000  0.15726000  0.50844000  1
  H  H115  1  0.24101000  0.17567000  0.57517000  1
  H  H116  1  0.35815000  0.15662000  0.60761000  1
  H  H117  1  0.37236000  0.13881000  0.53873000  1
  H  H118  1  0.40925000  0.20824000  0.43561000  1
  H  H119  1  0.46303000  0.24369000  0.46938000  1
  H  H120  1  0.47477000  0.30918000  0.49312000  1
  H  H121  1  0.48799000  0.34963000  0.37903000  1
  H  H122  1  0.47234000  0.28571000  0.35453000  1
  H  H123  1  0.08666000  0.13467000  0.59863000  1
  H  H124  1  0.11962000  0.19475000  0.61639000  1
  H  H125  1  0.15826000  0.22831000  0.56917000  1
  H  H126  1  0.17993000  0.19413000  0.51087000  1
  H  H127  1  0.15131000  0.13183000  0.49640000  1
  H  H128  1  0.22543000  0.01692000  0.53152000  1
  H  H129  1  0.28437000  0.05258000  0.51611000  1
  H  H130  1  0.22721000  0.10384000  0.42153000  1
  H  H131  1  0.17174000  0.06130000  0.43263000  1
  H  H132  1  0.27845000  0.16675000  0.89417000  1
  H  H133  1  0.07940000  0.87755000  0.78012000  1
  H  H134  1  0.17577000  0.95067000  0.85033000  1
  H  H135  1  0.09274000  0.99466000  0.74156000  1
  H  H136  1  0.07433000  0.00899000  0.67483000  1
  H  H137  1  0.09338000  0.89185000  0.64239000  1
  H  H138  1  0.11119000  0.87764000  0.71127000  1
  H  H139  1  0.04176000  0.84075000  0.81439000  1
  H  H140  1  0.00631000  0.78697000  0.78062000  1
  H  H141  1  0.94082000  0.77523000  0.75688000  1
  H  H142  1  0.90037000  0.76201000  0.87097000  1
  H  H143  1  0.96429000  0.77766000  0.89547000  1
  H  H144  1  0.11533000  0.16334000  0.65137000  1
  H  H145  1  0.05525000  0.13038000  0.63361000  1
  H  H146  1  0.02169000  0.09174000  0.68083000  1
  H  H147  1  0.05587000  0.07007000  0.73913000  1
  H  H148  1  0.11817000  0.09869000  0.75360000  1
  H  H149  1  0.23308000  0.02457000  0.71848000  1
  H  H150  1  0.19742000  0.96563000  0.73389000  1
  H  H151  1  0.14616000  0.02279000  0.82847000  1
  H  H152  1  0.18870000  0.07826000  0.81737000  1
  H  H153  1  0.58325000  0.52845000  0.64417000  1
  H  H154  1  0.87245000  0.32940000  0.53012000  1
  H  H155  1  0.79933000  0.42577000  0.60033000  1
  H  H156  1  0.75534000  0.34274000  0.49156000  1
  H  H157  1  0.74101000  0.32433000  0.42483000  1
  H  H158  1  0.85815000  0.34338000  0.39239000  1
  H  H159  1  0.87236000  0.36119000  0.46127000  1
  H  H160  1  0.90925000  0.29176000  0.56439000  1
  H  H161  1  0.96303000  0.25631000  0.53062000  1
  H  H162  1  0.97477000  0.19082000  0.50688000  1
  H  H163  1  0.98799000  0.15037000  0.62097000  1
  H  H164  1  0.97234000  0.21429000  0.64547000  1
  H  H165  1  0.58666000  0.36533000  0.40137000  1
  H  H166  1  0.61962000  0.30525000  0.38361000  1
  H  H167  1  0.65826000  0.27169000  0.43083000  1
  H  H168  1  0.67993000  0.30587000  0.48913000  1
  H  H169  1  0.65131000  0.36817000  0.50360000  1
  H  H170  1  0.72543000  0.48308000  0.46848000  1
  H  H171  1  0.78437000  0.44742000  0.48389000  1
  H  H172  1  0.72721000  0.39616000  0.57847000  1
  H  H173  1  0.67174000  0.43870000  0.56737000  1
  H  H174  1  0.22155000  0.83325000  0.39417000  1
  H  H175  1  0.42060000  0.12245000  0.28012000  1
  H  H176  1  0.32423000  0.04933000  0.35033000  1
  H  H177  1  0.40726000  0.00534000  0.24156000  1
  H  H178  1  0.42567000  0.99101000  0.17483000  1
  H  H179  1  0.40662000  0.10815000  0.14239000  1
  H  H180  1  0.38881000  0.12236000  0.21127000  1
  H  H181  1  0.45824000  0.15925000  0.31439000  1
  H  H182  1  0.49369000  0.21303000  0.28062000  1
  H  H183  1  0.55918000  0.22477000  0.25688000  1
  H  H184  1  0.59963000  0.23799000  0.37097000  1
  H  H185  1  0.53571000  0.22234000  0.39547000  1
  H  H186  1  0.38467000  0.83666000  0.15137000  1
  H  H187  1  0.44475000  0.86962000  0.13361000  1
  H  H188  1  0.47831000  0.90826000  0.18083000  1
  H  H189  1  0.44413000  0.92993000  0.23913000  1
  H  H190  1  0.38183000  0.90131000  0.25360000  1
  H  H191  1  0.26692000  0.97543000  0.21848000  1
  H  H192  1  0.30258000  0.03437000  0.23389000  1
  H  H193  1  0.35384000  0.97721000  0.32847000  1
  H  H194  1  0.31130000  0.92174000  0.31737000  1
  H  H195  1  0.91675000  0.47155000  0.14417000  1
  H  H196  1  0.62755000  0.67060000  0.03012000  1
  H  H197  1  0.70067000  0.57423000  0.10033000  1
  H  H198  1  0.74466000  0.65726000  0.99156000  1
  H  H199  1  0.75899000  0.67567000  0.92483000  1
  H  H200  1  0.64185000  0.65662000  0.89239000  1
  H  H201  1  0.62764000  0.63881000  0.96127000  1
  H  H202  1  0.59075000  0.70824000  0.06439000  1
  H  H203  1  0.53697000  0.74369000  0.03062000  1
  H  H204  1  0.52523000  0.80918000  0.00688000  1
  H  H205  1  0.51201000  0.84963000  0.12097000  1
  H  H206  1  0.52766000  0.78571000  0.14547000  1
  H  H207  1  0.91334000  0.63467000  0.90137000  1
  H  H208  1  0.88038000  0.69475000  0.88361000  1
  H  H209  1  0.84174000  0.72831000  0.93083000  1
  H  H210  1  0.82007000  0.69413000  0.98913000  1
  H  H211  1  0.84869000  0.63183000  0.00360000  1
  H  H212  1  0.77457000  0.51692000  0.96848000  1
  H  H213  1  0.71563000  0.55258000  0.98389000  1
  H  H214  1  0.77279000  0.60384000  0.07847000  1
  H  H215  1  0.82826000  0.56130000  0.06737000  1
  H  H216  1  0.10583000  0.77845000  0.33325000  1
  H  H217  1  0.21988000  0.57940000  0.62245000  1
  H  H218  1  0.14967000  0.67577000  0.54933000  1
  H  H219  1  0.25844000  0.59274000  0.50534000  1
  H  H220  1  0.32517000  0.57433000  0.49101000  1
  H  H221  1  0.35761000  0.59338000  0.60815000  1
  H  H222  1  0.28873000  0.61119000  0.62236000  1
  H  H223  1  0.18561000  0.54176000  0.65925000  1
  H  H224  1  0.21938000  0.50631000  0.71303000  1
  H  H225  1  0.24312000  0.44082000  0.72477000  1
  H  H226  1  0.12903000  0.40037000  0.73799000  1
  H  H227  1  0.10453000  0.46429000  0.72234000  1
  H  H228  1  0.34863000  0.61533000  0.33666000  1
  H  H229  1  0.36639000  0.55525000  0.36962000  1
  H  H230  1  0.31917000  0.52169000  0.40826000  1
  H  H231  1  0.26087000  0.55587000  0.42993000  1
  H  H232  1  0.24640000  0.61817000  0.40131000  1
  H  H233  1  0.28152000  0.73308000  0.47543000  1
  H  H234  1  0.26611000  0.69742000  0.53437000  1
  H  H235  1  0.17153000  0.64616000  0.47721000  1
  H  H236  1  0.18263000  0.68870000  0.42174000  1
  H  H237  1  0.97155000  0.35583000  0.08325000  1
  H  H238  1  0.17060000  0.46988000  0.37245000  1
  H  H239  1  0.07423000  0.39967000  0.29933000  1
  H  H240  1  0.15726000  0.50844000  0.25534000  1
  H  H241  1  0.17567000  0.57517000  0.24101000  1
  H  H242  1  0.15662000  0.60761000  0.35815000  1
  H  H243  1  0.13881000  0.53873000  0.37236000  1
  H  H244  1  0.20824000  0.43561000  0.40925000  1
  H  H245  1  0.24369000  0.46938000  0.46303000  1
  H  H246  1  0.30918000  0.49312000  0.47477000  1
  H  H247  1  0.34963000  0.37903000  0.48799000  1
  H  H248  1  0.28571000  0.35453000  0.47234000  1
  H  H249  1  0.13467000  0.59863000  0.08666000  1
  H  H250  1  0.19475000  0.61639000  0.11962000  1
  H  H251  1  0.22831000  0.56917000  0.15826000  1
  H  H252  1  0.19413000  0.51087000  0.17993000  1
  H  H253  1  0.13183000  0.49640000  0.15131000  1
  H  H254  1  0.01692000  0.53152000  0.22543000  1
  H  H255  1  0.05258000  0.51611000  0.28437000  1
  H  H256  1  0.10384000  0.42153000  0.22721000  1
  H  H257  1  0.06130000  0.43263000  0.17174000  1
  H  H258  1  0.39417000  0.22155000  0.83325000  1
  H  H259  1  0.28012000  0.42060000  0.12245000  1
  H  H260  1  0.35033000  0.32423000  0.04933000  1
  H  H261  1  0.24156000  0.40726000  0.00534000  1
  H  H262  1  0.17483000  0.42567000  0.99101000  1
  H  H263  1  0.14239000  0.40662000  0.10815000  1
  H  H264  1  0.21127000  0.38881000  0.12236000  1
  H  H265  1  0.31439000  0.45824000  0.15925000  1
  H  H266  1  0.28062000  0.49369000  0.21303000  1
  H  H267  1  0.25688000  0.55918000  0.22477000  1
  H  H268  1  0.37097000  0.59963000  0.23799000  1
  H  H269  1  0.39547000  0.53571000  0.22234000  1
  H  H270  1  0.15137000  0.38467000  0.83666000  1
  H  H271  1  0.13361000  0.44475000  0.86962000  1
  H  H272  1  0.18083000  0.47831000  0.90826000  1
  H  H273  1  0.23913000  0.44413000  0.92993000  1
  H  H274  1  0.25360000  0.38183000  0.90131000  1
  H  H275  1  0.21848000  0.26692000  0.97543000  1
  H  H276  1  0.23389000  0.30258000  0.03437000  1
  H  H277  1  0.32847000  0.35384000  0.97721000  1
  H  H278  1  0.31737000  0.31130000  0.92174000  1
  H  H279  1  0.52845000  0.64417000  0.58325000  1
  H  H280  1  0.32940000  0.53012000  0.87245000  1
  H  H281  1  0.42577000  0.60033000  0.79933000  1
  H  H282  1  0.34274000  0.49156000  0.75534000  1
  H  H283  1  0.32433000  0.42483000  0.74101000  1
  H  H284  1  0.34338000  0.39239000  0.85815000  1
  H  H285  1  0.36119000  0.46127000  0.87236000  1
  H  H286  1  0.29176000  0.56439000  0.90925000  1
  H  H287  1  0.25631000  0.53062000  0.96303000  1
  H  H288  1  0.19082000  0.50688000  0.97477000  1
  H  H289  1  0.15037000  0.62097000  0.98799000  1
  H  H290  1  0.21429000  0.64547000  0.97234000  1
  H  H291  1  0.36533000  0.40137000  0.58666000  1
  H  H292  1  0.30525000  0.38361000  0.61962000  1
  H  H293  1  0.27169000  0.43083000  0.65826000  1
  H  H294  1  0.30587000  0.48913000  0.67993000  1
  H  H295  1  0.36817000  0.50360000  0.65131000  1
  H  H296  1  0.48308000  0.46848000  0.72543000  1
  H  H297  1  0.44742000  0.48389000  0.78437000  1
  H  H298  1  0.39616000  0.57847000  0.72721000  1
  H  H299  1  0.43870000  0.56737000  0.67174000  1
  H  H300  1  0.60583000  0.72155000  0.66675000  1
  H  H301  1  0.71988000  0.92060000  0.37755000  1
  H  H302  1  0.64967000  0.82423000  0.45067000  1
  H  H303  1  0.75844000  0.90726000  0.49466000  1
  H  H304  1  0.82517000  0.92567000  0.50899000  1
  H  H305  1  0.85761000  0.90662000  0.39185000  1
  H  H306  1  0.78873000  0.88881000  0.37764000  1
  H  H307  1  0.68561000  0.95824000  0.34075000  1
  H  H308  1  0.71938000  0.99369000  0.28697000  1
  H  H309  1  0.74312000  0.05918000  0.27523000  1
  H  H310  1  0.62903000  0.09963000  0.26201000  1
  H  H311  1  0.60453000  0.03571000  0.27766000  1
  H  H312  1  0.84863000  0.88467000  0.66334000  1
  H  H313  1  0.86639000  0.94475000  0.63038000  1
  H  H314  1  0.81917000  0.97831000  0.59174000  1
  H  H315  1  0.76087000  0.94413000  0.57007000  1
  H  H316  1  0.74640000  0.88183000  0.59869000  1
  H  H317  1  0.78152000  0.76692000  0.52457000  1
  H  H318  1  0.76611000  0.80258000  0.46563000  1
  H  H319  1  0.67153000  0.85384000  0.52279000  1
  H  H320  1  0.68263000  0.81130000  0.57826000  1
  H  H321  1  0.02845000  0.85583000  0.41675000  1
  H  H322  1  0.82940000  0.96988000  0.12755000  1
  H  H323  1  0.92577000  0.89967000  0.20067000  1
  H  H324  1  0.84274000  0.00844000  0.24466000  1
  H  H325  1  0.82433000  0.07517000  0.25899000  1
  H  H326  1  0.84338000  0.10761000  0.14185000  1
  H  H327  1  0.86119000  0.03873000  0.12764000  1
  H  H328  1  0.79176000  0.93561000  0.09075000  1
  H  H329  1  0.75631000  0.96938000  0.03697000  1
  H  H330  1  0.69082000  0.99312000  0.02523000  1
  H  H331  1  0.65037000  0.87903000  0.01201000  1
  H  H332  1  0.71429000  0.85453000  0.02766000  1
  H  H333  1  0.86533000  0.09863000  0.41334000  1
  H  H334  1  0.80525000  0.11639000  0.38038000  1
  H  H335  1  0.77169000  0.06917000  0.34174000  1
  H  H336  1  0.80587000  0.01087000  0.32007000  1
  H  H337  1  0.86817000  0.99640000  0.34869000  1
  H  H338  1  0.98308000  0.03152000  0.27457000  1
  H  H339  1  0.94742000  0.01611000  0.21563000  1
  H  H340  1  0.89616000  0.92153000  0.27279000  1
  H  H341  1  0.93870000  0.93263000  0.32826000  1
  H  H342  1  0.89417000  0.27845000  0.16675000  1
  H  H343  1  0.78012000  0.07940000  0.87755000  1
  H  H344  1  0.85033000  0.17577000  0.95067000  1
  H  H345  1  0.74156000  0.09274000  0.99466000  1
  H  H346  1  0.67483000  0.07433000  0.00899000  1
  H  H347  1  0.64239000  0.09338000  0.89185000  1
  H  H348  1  0.71127000  0.11119000  0.87764000  1
  H  H349  1  0.81439000  0.04176000  0.84075000  1
  H  H350  1  0.78062000  0.00631000  0.78697000  1
  H  H351  1  0.75688000  0.94082000  0.77523000  1
  H  H352  1  0.87097000  0.90037000  0.76201000  1
  H  H353  1  0.89547000  0.96429000  0.77766000  1
  H  H354  1  0.65137000  0.11533000  0.16334000  1
  H  H355  1  0.63361000  0.05525000  0.13038000  1
  H  H356  1  0.68083000  0.02169000  0.09174000  1
  H  H357  1  0.73913000  0.05587000  0.07007000  1
  H  H358  1  0.75360000  0.11817000  0.09869000  1
  H  H359  1  0.71848000  0.23308000  0.02457000  1
  H  H360  1  0.73389000  0.19742000  0.96563000  1
  H  H361  1  0.82847000  0.14616000  0.02279000  1
  H  H362  1  0.81737000  0.18870000  0.07826000  1
  H  H363  1  0.47155000  0.14417000  0.91675000  1
  H  H364  1  0.67060000  0.03012000  0.62755000  1
  H  H365  1  0.57423000  0.10033000  0.70067000  1
  H  H366  1  0.65726000  0.99156000  0.74466000  1
  H  H367  1  0.67567000  0.92483000  0.75899000  1
  H  H368  1  0.65662000  0.89239000  0.64185000  1
  H  H369  1  0.63881000  0.96127000  0.62764000  1
  H  H370  1  0.70824000  0.06439000  0.59075000  1
  H  H371  1  0.74369000  0.03062000  0.53697000  1
  H  H372  1  0.80918000  0.00688000  0.52523000  1
  H  H373  1  0.84963000  0.12097000  0.51201000  1
  H  H374  1  0.78571000  0.14547000  0.52766000  1
  H  H375  1  0.63467000  0.90137000  0.91334000  1
  H  H376  1  0.69475000  0.88361000  0.88038000  1
  H  H377  1  0.72831000  0.93083000  0.84174000  1
  H  H378  1  0.69413000  0.98913000  0.82007000  1
  H  H379  1  0.63183000  0.00360000  0.84869000  1
  H  H380  1  0.51692000  0.96848000  0.77457000  1
  H  H381  1  0.55258000  0.98389000  0.71563000  1
  H  H382  1  0.60384000  0.07847000  0.77279000  1
  H  H383  1  0.56130000  0.06737000  0.82826000  1
  H  H384  1  0.33325000  0.10583000  0.77845000  1
  H  H385  1  0.62245000  0.21988000  0.57940000  1
  H  H386  1  0.54933000  0.14967000  0.67577000  1
  H  H387  1  0.50534000  0.25844000  0.59274000  1
  H  H388  1  0.49101000  0.32517000  0.57433000  1
  H  H389  1  0.60815000  0.35761000  0.59338000  1
  H  H390  1  0.62236000  0.28873000  0.61119000  1
  H  H391  1  0.65925000  0.18561000  0.54176000  1
  H  H392  1  0.71303000  0.21938000  0.50631000  1
  H  H393  1  0.72477000  0.24312000  0.44082000  1
  H  H394  1  0.73799000  0.12903000  0.40037000  1
  H  H395  1  0.72234000  0.10453000  0.46429000  1
  H  H396  1  0.33666000  0.34863000  0.61533000  1
  H  H397  1  0.36962000  0.36639000  0.55525000  1
  H  H398  1  0.40826000  0.31917000  0.52169000  1
  H  H399  1  0.42993000  0.26087000  0.55587000  1
  H  H400  1  0.40131000  0.24640000  0.61817000  1
  H  H401  1  0.47543000  0.28152000  0.73308000  1
  H  H402  1  0.53437000  0.26611000  0.69742000  1
  H  H403  1  0.47721000  0.17153000  0.64616000  1
  H  H404  1  0.42174000  0.18263000  0.68870000  1
  H  H405  1  0.83325000  0.39417000  0.22155000  1
  H  H406  1  0.12245000  0.28012000  0.42060000  1
  H  H407  1  0.04933000  0.35033000  0.32423000  1
  H  H408  1  0.00534000  0.24156000  0.40726000  1
  H  H409  1  0.99101000  0.17483000  0.42567000  1
  H  H410  1  0.10815000  0.14239000  0.40662000  1
  H  H411  1  0.12236000  0.21127000  0.38881000  1
  H  H412  1  0.15925000  0.31439000  0.45824000  1
  H  H413  1  0.21303000  0.28062000  0.49369000  1
  H  H414  1  0.22477000  0.25688000  0.55918000  1
  H  H415  1  0.23799000  0.37097000  0.59963000  1
  H  H416  1  0.22234000  0.39547000  0.53571000  1
  H  H417  1  0.83666000  0.15137000  0.38467000  1
  H  H418  1  0.86962000  0.13361000  0.44475000  1
  H  H419  1  0.90826000  0.18083000  0.47831000  1
  H  H420  1  0.92993000  0.23913000  0.44413000  1
  H  H421  1  0.90131000  0.25360000  0.38183000  1
  H  H422  1  0.97543000  0.21848000  0.26692000  1
  H  H423  1  0.03437000  0.23389000  0.30258000  1
  H  H424  1  0.97721000  0.32847000  0.35384000  1
  H  H425  1  0.92174000  0.31737000  0.31130000  1
  H  H426  1  0.35583000  0.08325000  0.97155000  1
  H  H427  1  0.46988000  0.37245000  0.17060000  1
  H  H428  1  0.39967000  0.29933000  0.07423000  1
  H  H429  1  0.50844000  0.25534000  0.15726000  1
  H  H430  1  0.57517000  0.24101000  0.17567000  1
  H  H431  1  0.60761000  0.35815000  0.15662000  1
  H  H432  1  0.53873000  0.37236000  0.13881000  1
  H  H433  1  0.43561000  0.40925000  0.20824000  1
  H  H434  1  0.46938000  0.46303000  0.24369000  1
  H  H435  1  0.49312000  0.47477000  0.30918000  1
  H  H436  1  0.37903000  0.48799000  0.34963000  1
  H  H437  1  0.35453000  0.47234000  0.28571000  1
  H  H438  1  0.59863000  0.08666000  0.13467000  1
  H  H439  1  0.61639000  0.11962000  0.19475000  1
  H  H440  1  0.56917000  0.15826000  0.22831000  1
  H  H441  1  0.51087000  0.17993000  0.19413000  1
  H  H442  1  0.49640000  0.15131000  0.13183000  1
  H  H443  1  0.53152000  0.22543000  0.01692000  1
  H  H444  1  0.51611000  0.28437000  0.05258000  1
  H  H445  1  0.42153000  0.22721000  0.10384000  1
  H  H446  1  0.43263000  0.17174000  0.06130000  1
  H  H447  1  0.66675000  0.60583000  0.72155000  1
  H  H448  1  0.37755000  0.71988000  0.92060000  1
  H  H449  1  0.45067000  0.64967000  0.82423000  1
  H  H450  1  0.49466000  0.75844000  0.90726000  1
  H  H451  1  0.50899000  0.82517000  0.92567000  1
  H  H452  1  0.39185000  0.85761000  0.90662000  1
  H  H453  1  0.37764000  0.78873000  0.88881000  1
  H  H454  1  0.34075000  0.68561000  0.95824000  1
  H  H455  1  0.28697000  0.71938000  0.99369000  1
  H  H456  1  0.27523000  0.74312000  0.05918000  1
  H  H457  1  0.26201000  0.62903000  0.09963000  1
  H  H458  1  0.27766000  0.60453000  0.03571000  1
  H  H459  1  0.66334000  0.84863000  0.88467000  1
  H  H460  1  0.63038000  0.86639000  0.94475000  1
  H  H461  1  0.59174000  0.81917000  0.97831000  1
  H  H462  1  0.57007000  0.76087000  0.94413000  1
  H  H463  1  0.59869000  0.74640000  0.88183000  1
  H  H464  1  0.52457000  0.78152000  0.76692000  1
  H  H465  1  0.46563000  0.76611000  0.80258000  1
  H  H466  1  0.52279000  0.67153000  0.85384000  1
  H  H467  1  0.57826000  0.68263000  0.81130000  1
  H  H468  1  0.14417000  0.91675000  0.47155000  1
  H  H469  1  0.03012000  0.62755000  0.67060000  1
  H  H470  1  0.10033000  0.70067000  0.57423000  1
  H  H471  1  0.99156000  0.74466000  0.65726000  1
  H  H472  1  0.92483000  0.75899000  0.67567000  1
  H  H473  1  0.89239000  0.64185000  0.65662000  1
  H  H474  1  0.96127000  0.62764000  0.63881000  1
  H  H475  1  0.06439000  0.59075000  0.70824000  1
  H  H476  1  0.03062000  0.53697000  0.74369000  1
  H  H477  1  0.00688000  0.52523000  0.80918000  1
  H  H478  1  0.12097000  0.51201000  0.84963000  1
  H  H479  1  0.14547000  0.52766000  0.78571000  1
  H  H480  1  0.90137000  0.91334000  0.63467000  1
  H  H481  1  0.88361000  0.88038000  0.69475000  1
  H  H482  1  0.93083000  0.84174000  0.72831000  1
  H  H483  1  0.98913000  0.82007000  0.69413000  1
  H  H484  1  0.00360000  0.84869000  0.63183000  1
  H  H485  1  0.96848000  0.77457000  0.51692000  1
  H  H486  1  0.98389000  0.71563000  0.55258000  1
  H  H487  1  0.07847000  0.77279000  0.60384000  1
  H  H488  1  0.06737000  0.82826000  0.56130000  1
  H  H489  1  0.16675000  0.89417000  0.27845000  1
  H  H490  1  0.87755000  0.78012000  0.07940000  1
  H  H491  1  0.95067000  0.85033000  0.17577000  1
  H  H492  1  0.99466000  0.74156000  0.09274000  1
  H  H493  1  0.00899000  0.67483000  0.07433000  1
  H  H494  1  0.89185000  0.64239000  0.09338000  1
  H  H495  1  0.87764000  0.71127000  0.11119000  1
  H  H496  1  0.84075000  0.81439000  0.04176000  1
  H  H497  1  0.78697000  0.78062000  0.00631000  1
  H  H498  1  0.77523000  0.75688000  0.94082000  1
  H  H499  1  0.76201000  0.87097000  0.90037000  1
  H  H500  1  0.77766000  0.89547000  0.96429000  1
  H  H501  1  0.16334000  0.65137000  0.11533000  1
  H  H502  1  0.13038000  0.63361000  0.05525000  1
  H  H503  1  0.09174000  0.68083000  0.02169000  1
  H  H504  1  0.07007000  0.73913000  0.05587000  1
  H  H505  1  0.09869000  0.75360000  0.11817000  1
  H  H506  1  0.02457000  0.71848000  0.23308000  1
  H  H507  1  0.96563000  0.73389000  0.19742000  1
  H  H508  1  0.02279000  0.82847000  0.14616000  1
  H  H509  1  0.07826000  0.81737000  0.18870000  1
  H  H510  1  0.85583000  0.41675000  0.02845000  1
  H  H511  1  0.96988000  0.12755000  0.82940000  1
  H  H512  1  0.89967000  0.20067000  0.92577000  1
  H  H513  1  0.00844000  0.24466000  0.84274000  1
  H  H514  1  0.07517000  0.25899000  0.82433000  1
  H  H515  1  0.10761000  0.14185000  0.84338000  1
  H  H516  1  0.03873000  0.12764000  0.86119000  1
  H  H517  1  0.93561000  0.09075000  0.79176000  1
  H  H518  1  0.96938000  0.03697000  0.75631000  1
  H  H519  1  0.99312000  0.02523000  0.69082000  1
  H  H520  1  0.87903000  0.01201000  0.65037000  1
  H  H521  1  0.85453000  0.02766000  0.71429000  1
  H  H522  1  0.09863000  0.41334000  0.86533000  1
  H  H523  1  0.11639000  0.38038000  0.80525000  1
  H  H524  1  0.06917000  0.34174000  0.77169000  1
  H  H525  1  0.01087000  0.32007000  0.80587000  1
  H  H526  1  0.99640000  0.34869000  0.86817000  1
  H  H527  1  0.03152000  0.27457000  0.98308000  1
  H  H528  1  0.01611000  0.21563000  0.94742000  1
  H  H529  1  0.92153000  0.27279000  0.89616000  1
  H  H530  1  0.93263000  0.32826000  0.93870000  1
  H  H531  1  0.64417000  0.58325000  0.52845000  1
  H  H532  1  0.53012000  0.87245000  0.32940000  1
  H  H533  1  0.60033000  0.79933000  0.42577000  1
  H  H534  1  0.49156000  0.75534000  0.34274000  1
  H  H535  1  0.42483000  0.74101000  0.32433000  1
  H  H536  1  0.39239000  0.85815000  0.34338000  1
  H  H537  1  0.46127000  0.87236000  0.36119000  1
  H  H538  1  0.56439000  0.90925000  0.29176000  1
  H  H539  1  0.53062000  0.96303000  0.25631000  1
  H  H540  1  0.50688000  0.97477000  0.19082000  1
  H  H541  1  0.62097000  0.98799000  0.15037000  1
  H  H542  1  0.64547000  0.97234000  0.21429000  1
  H  H543  1  0.40137000  0.58666000  0.36533000  1
  H  H544  1  0.38361000  0.61962000  0.30525000  1
  H  H545  1  0.43083000  0.65826000  0.27169000  1
  H  H546  1  0.48913000  0.67993000  0.30587000  1
  H  H547  1  0.50360000  0.65131000  0.36817000  1
  H  H548  1  0.46848000  0.72543000  0.48308000  1
  H  H549  1  0.48389000  0.78437000  0.44742000  1
  H  H550  1  0.57847000  0.72721000  0.39616000  1
  H  H551  1  0.56737000  0.67174000  0.43870000  1
  C  C552  1  0.76990000  0.31710000  0.12740000  1
  C  C553  1  0.64620000  0.55180000  0.20270000  1
  C  C554  1  0.61750000  0.57490000  0.22470000  1
  C  C555  1  0.59890000  0.60760000  0.20570000  1
  C  C556  1  0.60840000  0.61910000  0.16600000  1
  C  C557  1  0.63900000  0.59730000  0.14510000  1
  C  C558  1  0.65630000  0.56420000  0.16380000  1
  C  C559  1  0.60580000  0.56440000  0.26800000  1
  C  C560  1  0.59350000  0.52570000  0.27810000  1
  C  C561  1  0.58210000  0.51730000  0.31800000  1
  C  C562  1  0.58230000  0.54780000  0.34730000  1
  C  C563  1  0.59330000  0.58780000  0.33790000  1
  C  C564  1  0.60460000  0.59600000  0.29660000  1
  C  C565  1  0.56920000  0.53790000  0.39030000  1
  C  C566  1  0.58650000  0.65110000  0.14410000  1
  C  C567  1  0.55160000  0.66920000  0.16100000  1
  C  C568  1  0.53150000  0.70050000  0.14310000  1
  C  C569  1  0.49140000  0.71430000  0.15910000  1
  C  C570  1  0.48490000  0.71660000  0.20130000  1
  C  C571  1  0.44590000  0.72440000  0.21530000  1
  C  C572  1  0.41490000  0.73160000  0.18850000  1
  C  C573  1  0.42140000  0.73180000  0.14690000  1
  C  C574  1  0.45960000  0.72280000  0.13240000  1
  C  C575  1  0.37210000  0.73800000  0.20460000  1
  C  C576  1  0.60400000  0.35630000  0.33170000  1
  C  C577  1  0.62340000  0.36800000  0.29680000  1
  C  C578  1  0.66390000  0.35050000  0.28600000  1
  C  C579  1  0.56710000  0.37440000  0.34120000  1
  C  C580  1  0.54800000  0.39930000  0.31400000  1
  C  C581  1  0.56760000  0.41120000  0.27850000  1
  C  C582  1  0.60500000  0.39450000  0.27050000  1
  C  C583  1  0.74010000  0.40670000  0.24190000  1
  C  C584  1  0.71280000  0.44280000  0.23360000  1
  C  C585  1  0.71630000  0.47640000  0.25870000  1
  C  C586  1  0.69460000  0.51160000  0.24960000  1
  C  C587  1  0.66910000  0.51310000  0.21660000  1
  C  C588  1  0.66500000  0.47780000  0.19260000  1
  C  C589  1  0.68910000  0.44370000  0.20040000  1
  C  C590  1  0.43290000  0.01990000  0.87740000  1
  C  C591  1  0.19820000  0.89620000  0.95270000  1
  C  C592  1  0.17510000  0.86750000  0.97470000  1
  C  C593  1  0.14240000  0.84890000  0.95570000  1
  C  C594  1  0.13090000  0.85840000  0.91600000  1
  C  C595  1  0.15270000  0.88900000  0.89510000  1
  C  C596  1  0.18580000  0.90630000  0.91380000  1
  C  C597  1  0.18560000  0.85580000  0.01800000  1
  C  C598  1  0.22430000  0.84350000  0.02810000  1
  C  C599  1  0.23270000  0.83210000  0.06800000  1
  C  C600  1  0.20220000  0.83230000  0.09730000  1
  C  C601  1  0.16220000  0.84330000  0.08790000  1
  C  C602  1  0.15400000  0.85460000  0.04660000  1
  C  C603  1  0.21210000  0.81920000  0.14030000  1
  C  C604  1  0.09890000  0.83650000  0.89410000  1
  C  C605  1  0.08080000  0.80160000  0.91100000  1
  C  C606  1  0.04950000  0.78150000  0.89310000  1
  C  C607  1  0.03570000  0.74140000  0.90910000  1
  C  C608  1  0.03340000  0.73490000  0.95130000  1
  C  C609  1  0.02560000  0.69590000  0.96530000  1
  C  C610  1  0.01840000  0.66490000  0.93850000  1
  C  C611  1  0.01820000  0.67140000  0.89690000  1
  C  C612  1  0.02720000  0.70960000  0.88240000  1
  C  C613  1  0.01200000  0.62210000  0.95460000  1
  C  C614  1  0.39370000  0.85400000  0.08170000  1
  C  C615  1  0.38200000  0.87340000  0.04680000  1
  C  C616  1  0.39950000  0.91390000  0.03600000  1
  C  C617  1  0.37560000  0.81710000  0.09120000  1
  C  C618  1  0.35070000  0.79800000  0.06400000  1
  C  C619  1  0.33880000  0.81760000  0.02850000  1
  C  C620  1  0.35550000  0.85500000  0.02050000  1
  C  C621  1  0.34330000  0.99010000  0.99190000  1
  C  C622  1  0.30720000  0.96280000  0.98360000  1
  C  C623  1  0.27360000  0.96630000  0.00870000  1
  C  C624  1  0.23840000  0.94460000  0.99960000  1
  C  C625  1  0.23690000  0.91910000  0.96660000  1
  C  C626  1  0.27220000  0.91500000  0.94260000  1
  C  C627  1  0.30630000  0.93910000  0.95040000  1
  C  C628  1  0.73010000  0.68290000  0.62740000  1
  C  C629  1  0.85380000  0.44820000  0.70270000  1
  C  C630  1  0.88250000  0.42510000  0.72470000  1
  C  C631  1  0.90110000  0.39240000  0.70570000  1
  C  C632  1  0.89160000  0.38090000  0.66600000  1
  C  C633  1  0.86100000  0.40270000  0.64510000  1
  C  C634  1  0.84370000  0.43580000  0.66380000  1
  C  C635  1  0.89420000  0.43560000  0.76800000  1
  C  C636  1  0.90650000  0.47430000  0.77810000  1
  C  C637  1  0.91790000  0.48270000  0.81800000  1
  C  C638  1  0.91770000  0.45220000  0.84730000  1
  C  C639  1  0.90670000  0.41220000  0.83790000  1
  C  C640  1  0.89540000  0.40400000  0.79660000  1
  C  C641  1  0.93080000  0.46210000  0.89030000  1
  C  C642  1  0.91350000  0.34890000  0.64410000  1
  C  C643  1  0.94840000  0.33080000  0.66100000  1
  C  C644  1  0.96850000  0.29950000  0.64310000  1
  C  C645  1  0.00860000  0.28570000  0.65910000  1
  C  C646  1  0.01510000  0.28340000  0.70130000  1
  C  C647  1  0.05410000  0.27560000  0.71530000  1
  C  C648  1  0.08510000  0.26840000  0.68850000  1
  C  C649  1  0.07860000  0.26820000  0.64690000  1
  C  C650  1  0.04040000  0.27720000  0.63240000  1
  C  C651  1  0.12790000  0.26200000  0.70460000  1
  C  C652  1  0.89600000  0.64370000  0.83170000  1
  C  C653  1  0.87660000  0.63200000  0.79680000  1
  C  C654  1  0.83610000  0.64950000  0.78600000  1
  C  C655  1  0.93290000  0.62560000  0.84120000  1
  C  C656  1  0.95200000  0.60070000  0.81400000  1
  C  C657  1  0.93240000  0.58880000  0.77850000  1
  C  C658  1  0.89500000  0.60550000  0.77050000  1
  C  C659  1  0.75990000  0.59330000  0.74190000  1
  C  C660  1  0.78720000  0.55720000  0.73360000  1
  C  C661  1  0.78370000  0.52360000  0.75870000  1
  C  C662  1  0.80540000  0.48840000  0.74960000  1
  C  C663  1  0.83090000  0.48690000  0.71660000  1
  C  C664  1  0.83500000  0.52220000  0.69260000  1
  C  C665  1  0.81090000  0.55630000  0.70040000  1
  C  C666  1  0.06710000  0.98010000  0.37740000  1
  C  C667  1  0.30180000  0.10380000  0.45270000  1
  C  C668  1  0.32490000  0.13250000  0.47470000  1
  C  C669  1  0.35760000  0.15110000  0.45570000  1
  C  C670  1  0.36910000  0.14160000  0.41600000  1
  C  C671  1  0.34730000  0.11100000  0.39510000  1
  C  C672  1  0.31420000  0.09370000  0.41380000  1
  C  C673  1  0.31440000  0.14420000  0.51800000  1
  C  C674  1  0.27570000  0.15650000  0.52810000  1
  C  C675  1  0.26730000  0.16790000  0.56800000  1
  C  C676  1  0.29780000  0.16770000  0.59730000  1
  C  C677  1  0.33780000  0.15670000  0.58790000  1
  C  C678  1  0.34600000  0.14540000  0.54660000  1
  C  C679  1  0.28790000  0.18080000  0.64030000  1
  C  C680  1  0.40110000  0.16350000  0.39410000  1
  C  C681  1  0.41920000  0.19840000  0.41100000  1
  C  C682  1  0.45050000  0.21850000  0.39310000  1
  C  C683  1  0.46430000  0.25860000  0.40910000  1
  C  C684  1  0.46660000  0.26510000  0.45130000  1
  C  C685  1  0.47440000  0.30410000  0.46530000  1
  C  C686  1  0.48160000  0.33510000  0.43850000  1
  C  C687  1  0.48180000  0.32860000  0.39690000  1
  C  C688  1  0.47280000  0.29040000  0.38240000  1
  C  C689  1  0.48800000  0.37790000  0.45460000  1
  C  C690  1  0.10630000  0.14600000  0.58170000  1
  C  C691  1  0.11800000  0.12660000  0.54680000  1
  C  C692  1  0.10050000  0.08610000  0.53600000  1
  C  C693  1  0.12440000  0.18290000  0.59120000  1
  C  C694  1  0.14930000  0.20200000  0.56400000  1
  C  C695  1  0.16120000  0.18240000  0.52850000  1
  C  C696  1  0.14450000  0.14500000  0.52050000  1
  C  C697  1  0.15670000  0.00990000  0.49190000  1
  C  C698  1  0.19280000  0.03720000  0.48360000  1
  C  C699  1  0.22640000  0.03370000  0.50870000  1
  C  C700  1  0.26160000  0.05540000  0.49960000  1
  C  C701  1  0.26310000  0.08090000  0.46660000  1
  C  C702  1  0.22780000  0.08500000  0.44260000  1
  C  C703  1  0.19370000  0.06090000  0.45040000  1
  C  C704  1  0.26990000  0.18290000  0.87260000  1
  C  C705  1  0.14620000  0.94820000  0.79730000  1
  C  C706  1  0.11750000  0.92510000  0.77530000  1
  C  C707  1  0.09890000  0.89240000  0.79430000  1
  C  C708  1  0.10840000  0.88090000  0.83400000  1
  C  C709  1  0.13900000  0.90270000  0.85490000  1
  C  C710  1  0.15630000  0.93580000  0.83620000  1
  C  C711  1  0.10580000  0.93560000  0.73200000  1
  C  C712  1  0.09350000  0.97430000  0.72190000  1
  C  C713  1  0.08210000  0.98270000  0.68200000  1
  C  C714  1  0.08230000  0.95220000  0.65270000  1
  C  C715  1  0.09330000  0.91220000  0.66210000  1
  C  C716  1  0.10460000  0.90400000  0.70340000  1
  C  C717  1  0.06920000  0.96210000  0.60970000  1
  C  C718  1  0.08650000  0.84890000  0.85590000  1
  C  C719  1  0.05160000  0.83080000  0.83900000  1
  C  C720  1  0.03150000  0.79950000  0.85690000  1
  C  C721  1  0.99140000  0.78570000  0.84090000  1
  C  C722  1  0.98490000  0.78340000  0.79870000  1
  C  C723  1  0.94590000  0.77560000  0.78470000  1
  C  C724  1  0.91490000  0.76840000  0.81150000  1
  C  C725  1  0.92140000  0.76820000  0.85310000  1
  C  C726  1  0.95960000  0.77720000  0.86760000  1
  C  C727  1  0.87210000  0.76200000  0.79540000  1
  C  C728  1  0.10400000  0.14370000  0.66830000  1
  C  C729  1  0.12340000  0.13200000  0.70320000  1
  C  C730  1  0.16390000  0.14950000  0.71400000  1
  C  C731  1  0.06710000  0.12560000  0.65880000  1
  C  C732  1  0.04800000  0.10070000  0.68600000  1
  C  C733  1  0.06760000  0.08880000  0.72150000  1
  C  C734  1  0.10500000  0.10550000  0.72950000  1
  C  C735  1  0.24010000  0.09330000  0.75810000  1
  C  C736  1  0.21280000  0.05720000  0.76640000  1
  C  C737  1  0.21630000  0.02360000  0.74130000  1
  C  C738  1  0.19460000  0.98840000  0.75040000  1
  C  C739  1  0.16910000  0.98690000  0.78340000  1
  C  C740  1  0.16500000  0.02220000  0.80740000  1
  C  C741  1  0.18910000  0.05630000  0.79960000  1
  C  C742  1  0.56710000  0.51990000  0.62260000  1
  C  C743  1  0.80180000  0.39620000  0.54730000  1
  C  C744  1  0.82490000  0.36750000  0.52530000  1
  C  C745  1  0.85760000  0.34890000  0.54430000  1
  C  C746  1  0.86910000  0.35840000  0.58400000  1
  C  C747  1  0.84730000  0.38900000  0.60490000  1
  C  C748  1  0.81420000  0.40630000  0.58620000  1
  C  C749  1  0.81440000  0.35580000  0.48200000  1
  C  C750  1  0.77570000  0.34350000  0.47190000  1
  C  C751  1  0.76730000  0.33210000  0.43200000  1
  C  C752  1  0.79780000  0.33230000  0.40270000  1
  C  C753  1  0.83780000  0.34330000  0.41210000  1
  C  C754  1  0.84600000  0.35460000  0.45340000  1
  C  C755  1  0.78790000  0.31920000  0.35970000  1
  C  C756  1  0.90110000  0.33650000  0.60590000  1
  C  C757  1  0.91920000  0.30160000  0.58900000  1
  C  C758  1  0.95050000  0.28150000  0.60690000  1
  C  C759  1  0.96430000  0.24140000  0.59090000  1
  C  C760  1  0.96660000  0.23490000  0.54870000  1
  C  C761  1  0.97440000  0.19590000  0.53470000  1
  C  C762  1  0.98160000  0.16490000  0.56150000  1
  C  C763  1  0.98180000  0.17140000  0.60310000  1
  C  C764  1  0.97280000  0.20960000  0.61760000  1
  C  C765  1  0.98800000  0.12210000  0.54540000  1
  C  C766  1  0.60630000  0.35400000  0.41830000  1
  C  C767  1  0.61800000  0.37340000  0.45320000  1
  C  C768  1  0.60050000  0.41390000  0.46400000  1
  C  C769  1  0.62440000  0.31710000  0.40880000  1
  C  C770  1  0.64930000  0.29800000  0.43600000  1
  C  C771  1  0.66120000  0.31760000  0.47150000  1
  C  C772  1  0.64450000  0.35500000  0.47950000  1
  C  C773  1  0.65670000  0.49010000  0.50810000  1
  C  C774  1  0.69280000  0.46280000  0.51640000  1
  C  C775  1  0.72640000  0.46630000  0.49130000  1
  C  C776  1  0.76160000  0.44460000  0.50040000  1
  C  C777  1  0.76310000  0.41910000  0.53340000  1
  C  C778  1  0.72780000  0.41500000  0.55740000  1
  C  C779  1  0.69370000  0.43910000  0.54960000  1
  C  C780  1  0.23010000  0.81710000  0.37260000  1
  C  C781  1  0.35380000  0.05180000  0.29730000  1
  C  C782  1  0.38250000  0.07490000  0.27530000  1
  C  C783  1  0.40110000  0.10760000  0.29430000  1
  C  C784  1  0.39160000  0.11910000  0.33400000  1
  C  C785  1  0.36100000  0.09730000  0.35490000  1
  C  C786  1  0.34370000  0.06420000  0.33620000  1
  C  C787  1  0.39420000  0.06440000  0.23200000  1
  C  C788  1  0.40650000  0.02570000  0.22190000  1
  C  C789  1  0.41790000  0.01730000  0.18200000  1
  C  C790  1  0.41770000  0.04780000  0.15270000  1
  C  C791  1  0.40670000  0.08780000  0.16210000  1
  C  C792  1  0.39540000  0.09600000  0.20340000  1
  C  C793  1  0.43080000  0.03790000  0.10970000  1
  C  C794  1  0.41350000  0.15110000  0.35590000  1
  C  C795  1  0.44840000  0.16920000  0.33900000  1
  C  C796  1  0.46850000  0.20050000  0.35690000  1
  C  C797  1  0.50860000  0.21430000  0.34090000  1
  C  C798  1  0.51510000  0.21660000  0.29870000  1
  C  C799  1  0.55410000  0.22440000  0.28470000  1
  C  C800  1  0.58510000  0.23160000  0.31150000  1
  C  C801  1  0.57860000  0.23180000  0.35310000  1
  C  C802  1  0.54040000  0.22280000  0.36760000  1
  C  C803  1  0.62790000  0.23800000  0.29540000  1
  C  C804  1  0.39600000  0.85630000  0.16830000  1
  C  C805  1  0.37660000  0.86800000  0.20320000  1
  C  C806  1  0.33610000  0.85050000  0.21400000  1
  C  C807  1  0.43290000  0.87440000  0.15880000  1
  C  C808  1  0.45200000  0.89930000  0.18600000  1
  C  C809  1  0.43240000  0.91120000  0.22150000  1
  C  C810  1  0.39500000  0.89450000  0.22950000  1
  C  C811  1  0.25990000  0.90670000  0.25810000  1
  C  C812  1  0.28720000  0.94280000  0.26640000  1
  C  C813  1  0.28370000  0.97640000  0.24130000  1
  C  C814  1  0.30540000  0.01160000  0.25040000  1
  C  C815  1  0.33090000  0.01310000  0.28340000  1
  C  C816  1  0.33500000  0.97780000  0.30740000  1
  C  C817  1  0.31090000  0.94370000  0.29960000  1
  C  C818  1  0.93290000  0.48010000  0.12260000  1
  C  C819  1  0.69820000  0.60380000  0.04730000  1
  C  C820  1  0.67510000  0.63250000  0.02530000  1
  C  C821  1  0.64240000  0.65110000  0.04430000  1
  C  C822  1  0.63090000  0.64160000  0.08400000  1
  C  C823  1  0.65270000  0.61100000  0.10490000  1
  C  C824  1  0.68580000  0.59370000  0.08620000  1
  C  C825  1  0.68560000  0.64420000  0.98200000  1
  C  C826  1  0.72430000  0.65650000  0.97190000  1
  C  C827  1  0.73270000  0.66790000  0.93200000  1
  C  C828  1  0.70220000  0.66770000  0.90270000  1
  C  C829  1  0.66220000  0.65670000  0.91210000  1
  C  C830  1  0.65400000  0.64540000  0.95340000  1
  C  C831  1  0.71210000  0.68080000  0.85970000  1
  C  C832  1  0.59890000  0.66350000  0.10590000  1
  C  C833  1  0.58080000  0.69840000  0.08900000  1
  C  C834  1  0.54950000  0.71850000  0.10690000  1
  C  C835  1  0.53570000  0.75860000  0.09090000  1
  C  C836  1  0.53340000  0.76510000  0.04870000  1
  C  C837  1  0.52560000  0.80410000  0.03470000  1
  C  C838  1  0.51840000  0.83510000  0.06150000  1
  C  C839  1  0.51820000  0.82860000  0.10310000  1
  C  C840  1  0.52720000  0.79040000  0.11760000  1
  C  C841  1  0.51200000  0.87790000  0.04540000  1
  C  C842  1  0.89370000  0.64600000  0.91830000  1
  C  C843  1  0.88200000  0.62660000  0.95320000  1
  C  C844  1  0.89950000  0.58610000  0.96400000  1
  C  C845  1  0.87560000  0.68290000  0.90880000  1
  C  C846  1  0.85070000  0.70200000  0.93600000  1
  C  C847  1  0.83880000  0.68240000  0.97150000  1
  C  C848  1  0.85550000  0.64500000  0.97950000  1
  C  C849  1  0.84330000  0.50990000  0.00810000  1
  C  C850  1  0.80720000  0.53720000  0.01640000  1
  C  C851  1  0.77360000  0.53370000  0.99130000  1
  C  C852  1  0.73840000  0.55540000  0.00040000  1
  C  C853  1  0.73690000  0.58090000  0.03340000  1
  C  C854  1  0.77220000  0.58500000  0.05740000  1
  C  C855  1  0.80630000  0.56090000  0.04960000  1
  C  C856  1  0.12740000  0.76990000  0.31710000  1
  C  C857  1  0.20270000  0.64620000  0.55180000  1
  C  C858  1  0.22470000  0.61750000  0.57490000  1
  C  C859  1  0.20570000  0.59890000  0.60760000  1
  C  C860  1  0.16600000  0.60840000  0.61910000  1
  C  C861  1  0.14510000  0.63900000  0.59730000  1
  C  C862  1  0.16380000  0.65630000  0.56420000  1
  C  C863  1  0.26800000  0.60580000  0.56440000  1
  C  C864  1  0.27810000  0.59350000  0.52570000  1
  C  C865  1  0.31800000  0.58210000  0.51730000  1
  C  C866  1  0.34730000  0.58230000  0.54780000  1
  C  C867  1  0.33790000  0.59330000  0.58780000  1
  C  C868  1  0.29660000  0.60460000  0.59600000  1
  C  C869  1  0.39030000  0.56920000  0.53790000  1
  C  C870  1  0.14410000  0.58650000  0.65110000  1
  C  C871  1  0.16100000  0.55160000  0.66920000  1
  C  C872  1  0.14310000  0.53150000  0.70050000  1
  C  C873  1  0.15910000  0.49140000  0.71430000  1
  C  C874  1  0.20130000  0.48490000  0.71660000  1
  C  C875  1  0.21530000  0.44590000  0.72440000  1
  C  C876  1  0.18850000  0.41490000  0.73160000  1
  C  C877  1  0.14690000  0.42140000  0.73180000  1
  C  C878  1  0.13240000  0.45960000  0.72280000  1
  C  C879  1  0.20460000  0.37210000  0.73800000  1
  C  C880  1  0.33170000  0.60400000  0.35630000  1
  C  C881  1  0.29680000  0.62340000  0.36800000  1
  C  C882  1  0.28600000  0.66390000  0.35050000  1
  C  C883  1  0.34120000  0.56710000  0.37440000  1
  C  C884  1  0.31400000  0.54800000  0.39930000  1
  C  C885  1  0.27850000  0.56760000  0.41120000  1
  C  C886  1  0.27050000  0.60500000  0.39450000  1
  C  C887  1  0.24190000  0.74010000  0.40670000  1
  C  C888  1  0.23360000  0.71280000  0.44280000  1
  C  C889  1  0.25870000  0.71630000  0.47640000  1
  C  C890  1  0.24960000  0.69460000  0.51160000  1
  C  C891  1  0.21660000  0.66910000  0.51310000  1
  C  C892  1  0.19260000  0.66500000  0.47780000  1
  C  C893  1  0.20040000  0.68910000  0.44370000  1
  C  C894  1  0.98010000  0.37740000  0.06710000  1
  C  C895  1  0.10380000  0.45270000  0.30180000  1
  C  C896  1  0.13250000  0.47470000  0.32490000  1
  C  C897  1  0.15110000  0.45570000  0.35760000  1
  C  C898  1  0.14160000  0.41600000  0.36910000  1
  C  C899  1  0.11100000  0.39510000  0.34730000  1
  C  C900  1  0.09370000  0.41380000  0.31420000  1
  C  C901  1  0.14420000  0.51800000  0.31440000  1
  C  C902  1  0.15650000  0.52810000  0.27570000  1
  C  C903  1  0.16790000  0.56800000  0.26730000  1
  C  C904  1  0.16770000  0.59730000  0.29780000  1
  C  C905  1  0.15670000  0.58790000  0.33780000  1
  C  C906  1  0.14540000  0.54660000  0.34600000  1
  C  C907  1  0.18080000  0.64030000  0.28790000  1
  C  C908  1  0.16350000  0.39410000  0.40110000  1
  C  C909  1  0.19840000  0.41100000  0.41920000  1
  C  C910  1  0.21850000  0.39310000  0.45050000  1
  C  C911  1  0.25860000  0.40910000  0.46430000  1
  C  C912  1  0.26510000  0.45130000  0.46660000  1
  C  C913  1  0.30410000  0.46530000  0.47440000  1
  C  C914  1  0.33510000  0.43850000  0.48160000  1
  C  C915  1  0.32860000  0.39690000  0.48180000  1
  C  C916  1  0.29040000  0.38240000  0.47280000  1
  C  C917  1  0.37790000  0.45460000  0.48800000  1
  C  C918  1  0.14600000  0.58170000  0.10630000  1
  C  C919  1  0.12660000  0.54680000  0.11800000  1
  C  C920  1  0.08610000  0.53600000  0.10050000  1
  C  C921  1  0.18290000  0.59120000  0.12440000  1
  C  C922  1  0.20200000  0.56400000  0.14930000  1
  C  C923  1  0.18240000  0.52850000  0.16120000  1
  C  C924  1  0.14500000  0.52050000  0.14450000  1
  C  C925  1  0.00990000  0.49190000  0.15670000  1
  C  C926  1  0.03720000  0.48360000  0.19280000  1
  C  C927  1  0.03370000  0.50870000  0.22640000  1
  C  C928  1  0.05540000  0.49960000  0.26160000  1
  C  C929  1  0.08090000  0.46660000  0.26310000  1
  C  C930  1  0.08500000  0.44260000  0.22780000  1
  C  C931  1  0.06090000  0.45040000  0.19370000  1
  C  C932  1  0.37260000  0.23010000  0.81710000  1
  C  C933  1  0.29730000  0.35380000  0.05180000  1
  C  C934  1  0.27530000  0.38250000  0.07490000  1
  C  C935  1  0.29430000  0.40110000  0.10760000  1
  C  C936  1  0.33400000  0.39160000  0.11910000  1
  C  C937  1  0.35490000  0.36100000  0.09730000  1
  C  C938  1  0.33620000  0.34370000  0.06420000  1
  C  C939  1  0.23200000  0.39420000  0.06440000  1
  C  C940  1  0.22190000  0.40650000  0.02570000  1
  C  C941  1  0.18200000  0.41790000  0.01730000  1
  C  C942  1  0.15270000  0.41770000  0.04780000  1
  C  C943  1  0.16210000  0.40670000  0.08780000  1
  C  C944  1  0.20340000  0.39540000  0.09600000  1
  C  C945  1  0.10970000  0.43080000  0.03790000  1
  C  C946  1  0.35590000  0.41350000  0.15110000  1
  C  C947  1  0.33900000  0.44840000  0.16920000  1
  C  C948  1  0.35690000  0.46850000  0.20050000  1
  C  C949  1  0.34090000  0.50860000  0.21430000  1
  C  C950  1  0.29870000  0.51510000  0.21660000  1
  C  C951  1  0.28470000  0.55410000  0.22440000  1
  C  C952  1  0.31150000  0.58510000  0.23160000  1
  C  C953  1  0.35310000  0.57860000  0.23180000  1
  C  C954  1  0.36760000  0.54040000  0.22280000  1
  C  C955  1  0.29540000  0.62790000  0.23800000  1
  C  C956  1  0.16830000  0.39600000  0.85630000  1
  C  C957  1  0.20320000  0.37660000  0.86800000  1
  C  C958  1  0.21400000  0.33610000  0.85050000  1
  C  C959  1  0.15880000  0.43290000  0.87440000  1
  C  C960  1  0.18600000  0.45200000  0.89930000  1
  C  C961  1  0.22150000  0.43240000  0.91120000  1
  C  C962  1  0.22950000  0.39500000  0.89450000  1
  C  C963  1  0.25810000  0.25990000  0.90670000  1
  C  C964  1  0.26640000  0.28720000  0.94280000  1
  C  C965  1  0.24130000  0.28370000  0.97640000  1
  C  C966  1  0.25040000  0.30540000  0.01160000  1
  C  C967  1  0.28340000  0.33090000  0.01310000  1
  C  C968  1  0.30740000  0.33500000  0.97780000  1
  C  C969  1  0.29960000  0.31090000  0.94370000  1
  C  C970  1  0.51990000  0.62260000  0.56710000  1
  C  C971  1  0.39620000  0.54730000  0.80180000  1
  C  C972  1  0.36750000  0.52530000  0.82490000  1
  C  C973  1  0.34890000  0.54430000  0.85760000  1
  C  C974  1  0.35840000  0.58400000  0.86910000  1
  C  C975  1  0.38900000  0.60490000  0.84730000  1
  C  C976  1  0.40630000  0.58620000  0.81420000  1
  C  C977  1  0.35580000  0.48200000  0.81440000  1
  C  C978  1  0.34350000  0.47190000  0.77570000  1
  C  C979  1  0.33210000  0.43200000  0.76730000  1
  C  C980  1  0.33230000  0.40270000  0.79780000  1
  C  C981  1  0.34330000  0.41210000  0.83780000  1
  C  C982  1  0.35460000  0.45340000  0.84600000  1
  C  C983  1  0.31920000  0.35970000  0.78790000  1
  C  C984  1  0.33650000  0.60590000  0.90110000  1
  C  C985  1  0.30160000  0.58900000  0.91920000  1
  C  C986  1  0.28150000  0.60690000  0.95050000  1
  C  C987  1  0.24140000  0.59090000  0.96430000  1
  C  C988  1  0.23490000  0.54870000  0.96660000  1
  C  C989  1  0.19590000  0.53470000  0.97440000  1
  C  C990  1  0.16490000  0.56150000  0.98160000  1
  C  C991  1  0.17140000  0.60310000  0.98180000  1
  C  C992  1  0.20960000  0.61760000  0.97280000  1
  C  C993  1  0.12210000  0.54540000  0.98800000  1
  C  C994  1  0.35400000  0.41830000  0.60630000  1
  C  C995  1  0.37340000  0.45320000  0.61800000  1
  C  C996  1  0.41390000  0.46400000  0.60050000  1
  C  C997  1  0.31710000  0.40880000  0.62440000  1
  C  C998  1  0.29800000  0.43600000  0.64930000  1
  C  C999  1  0.31760000  0.47150000  0.66120000  1
  C  C1000  1  0.35500000  0.47950000  0.64450000  1
  C  C1001  1  0.49010000  0.50810000  0.65670000  1
  C  C1002  1  0.46280000  0.51640000  0.69280000  1
  C  C1003  1  0.46630000  0.49130000  0.72640000  1
  C  C1004  1  0.44460000  0.50040000  0.76160000  1
  C  C1005  1  0.41910000  0.53340000  0.76310000  1
  C  C1006  1  0.41500000  0.55740000  0.72780000  1
  C  C1007  1  0.43910000  0.54960000  0.69370000  1
  C  C1008  1  0.62740000  0.73010000  0.68290000  1
  C  C1009  1  0.70270000  0.85380000  0.44820000  1
  C  C1010  1  0.72470000  0.88250000  0.42510000  1
  C  C1011  1  0.70570000  0.90110000  0.39240000  1
  C  C1012  1  0.66600000  0.89160000  0.38090000  1
  C  C1013  1  0.64510000  0.86100000  0.40270000  1
  C  C1014  1  0.66380000  0.84370000  0.43580000  1
  C  C1015  1  0.76800000  0.89420000  0.43560000  1
  C  C1016  1  0.77810000  0.90650000  0.47430000  1
  C  C1017  1  0.81800000  0.91790000  0.48270000  1
  C  C1018  1  0.84730000  0.91770000  0.45220000  1
  C  C1019  1  0.83790000  0.90670000  0.41220000  1
  C  C1020  1  0.79660000  0.89540000  0.40400000  1
  C  C1021  1  0.89030000  0.93080000  0.46210000  1
  C  C1022  1  0.64410000  0.91350000  0.34890000  1
  C  C1023  1  0.66100000  0.94840000  0.33080000  1
  C  C1024  1  0.64310000  0.96850000  0.29950000  1
  C  C1025  1  0.65910000  0.00860000  0.28570000  1
  C  C1026  1  0.70130000  0.01510000  0.28340000  1
  C  C1027  1  0.71530000  0.05410000  0.27560000  1
  C  C1028  1  0.68850000  0.08510000  0.26840000  1
  C  C1029  1  0.64690000  0.07860000  0.26820000  1
  C  C1030  1  0.63240000  0.04040000  0.27720000  1
  C  C1031  1  0.70460000  0.12790000  0.26200000  1
  C  C1032  1  0.83170000  0.89600000  0.64370000  1
  C  C1033  1  0.79680000  0.87660000  0.63200000  1
  C  C1034  1  0.78600000  0.83610000  0.64950000  1
  C  C1035  1  0.84120000  0.93290000  0.62560000  1
  C  C1036  1  0.81400000  0.95200000  0.60070000  1
  C  C1037  1  0.77850000  0.93240000  0.58880000  1
  C  C1038  1  0.77050000  0.89500000  0.60550000  1
  C  C1039  1  0.74190000  0.75990000  0.59330000  1
  C  C1040  1  0.73360000  0.78720000  0.55720000  1
  C  C1041  1  0.75870000  0.78370000  0.52360000  1
  C  C1042  1  0.74960000  0.80540000  0.48840000  1
  C  C1043  1  0.71660000  0.83090000  0.48690000  1
  C  C1044  1  0.69260000  0.83500000  0.52220000  1
  C  C1045  1  0.70040000  0.81090000  0.55630000  1
  C  C1046  1  0.01990000  0.87740000  0.43290000  1
  C  C1047  1  0.89620000  0.95270000  0.19820000  1
  C  C1048  1  0.86750000  0.97470000  0.17510000  1
  C  C1049  1  0.84890000  0.95570000  0.14240000  1
  C  C1050  1  0.85840000  0.91600000  0.13090000  1
  C  C1051  1  0.88900000  0.89510000  0.15270000  1
  C  C1052  1  0.90630000  0.91380000  0.18580000  1
  C  C1053  1  0.85580000  0.01800000  0.18560000  1
  C  C1054  1  0.84350000  0.02810000  0.22430000  1
  C  C1055  1  0.83210000  0.06800000  0.23270000  1
  C  C1056  1  0.83230000  0.09730000  0.20220000  1
  C  C1057  1  0.84330000  0.08790000  0.16220000  1
  C  C1058  1  0.85460000  0.04660000  0.15400000  1
  C  C1059  1  0.81920000  0.14030000  0.21210000  1
  C  C1060  1  0.83650000  0.89410000  0.09890000  1
  C  C1061  1  0.80160000  0.91100000  0.08080000  1
  C  C1062  1  0.78150000  0.89310000  0.04950000  1
  C  C1063  1  0.74140000  0.90910000  0.03570000  1
  C  C1064  1  0.73490000  0.95130000  0.03340000  1
  C  C1065  1  0.69590000  0.96530000  0.02560000  1
  C  C1066  1  0.66490000  0.93850000  0.01840000  1
  C  C1067  1  0.67140000  0.89690000  0.01820000  1
  C  C1068  1  0.70960000  0.88240000  0.02720000  1
  C  C1069  1  0.62210000  0.95460000  0.01200000  1
  C  C1070  1  0.85400000  0.08170000  0.39370000  1
  C  C1071  1  0.87340000  0.04680000  0.38200000  1
  C  C1072  1  0.91390000  0.03600000  0.39950000  1
  C  C1073  1  0.81710000  0.09120000  0.37560000  1
  C  C1074  1  0.79800000  0.06400000  0.35070000  1
  C  C1075  1  0.81760000  0.02850000  0.33880000  1
  C  C1076  1  0.85500000  0.02050000  0.35550000  1
  C  C1077  1  0.99010000  0.99190000  0.34330000  1
  C  C1078  1  0.96280000  0.98360000  0.30720000  1
  C  C1079  1  0.96630000  0.00870000  0.27360000  1
  C  C1080  1  0.94460000  0.99960000  0.23840000  1
  C  C1081  1  0.91910000  0.96660000  0.23690000  1
  C  C1082  1  0.91500000  0.94260000  0.27220000  1
  C  C1083  1  0.93910000  0.95040000  0.30630000  1
  C  C1084  1  0.87260000  0.26990000  0.18290000  1
  C  C1085  1  0.79730000  0.14620000  0.94820000  1
  C  C1086  1  0.77530000  0.11750000  0.92510000  1
  C  C1087  1  0.79430000  0.09890000  0.89240000  1
  C  C1088  1  0.83400000  0.10840000  0.88090000  1
  C  C1089  1  0.85490000  0.13900000  0.90270000  1
  C  C1090  1  0.83620000  0.15630000  0.93580000  1
  C  C1091  1  0.73200000  0.10580000  0.93560000  1
  C  C1092  1  0.72190000  0.09350000  0.97430000  1
  C  C1093  1  0.68200000  0.08210000  0.98270000  1
  C  C1094  1  0.65270000  0.08230000  0.95220000  1
  C  C1095  1  0.66210000  0.09330000  0.91220000  1
  C  C1096  1  0.70340000  0.10460000  0.90400000  1
  C  C1097  1  0.60970000  0.06920000  0.96210000  1
  C  C1098  1  0.85590000  0.08650000  0.84890000  1
  C  C1099  1  0.83900000  0.05160000  0.83080000  1
  C  C1100  1  0.85690000  0.03150000  0.79950000  1
  C  C1101  1  0.84090000  0.99140000  0.78570000  1
  C  C1102  1  0.79870000  0.98490000  0.78340000  1
  C  C1103  1  0.78470000  0.94590000  0.77560000  1
  C  C1104  1  0.81150000  0.91490000  0.76840000  1
  C  C1105  1  0.85310000  0.92140000  0.76820000  1
  C  C1106  1  0.86760000  0.95960000  0.77720000  1
  C  C1107  1  0.79540000  0.87210000  0.76200000  1
  C  C1108  1  0.66830000  0.10400000  0.14370000  1
  C  C1109  1  0.70320000  0.12340000  0.13200000  1
  C  C1110  1  0.71400000  0.16390000  0.14950000  1
  C  C1111  1  0.65880000  0.06710000  0.12560000  1
  C  C1112  1  0.68600000  0.04800000  0.10070000  1
  C  C1113  1  0.72150000  0.06760000  0.08880000  1
  C  C1114  1  0.72950000  0.10500000  0.10550000  1
  C  C1115  1  0.75810000  0.24010000  0.09330000  1
  C  C1116  1  0.76640000  0.21280000  0.05720000  1
  C  C1117  1  0.74130000  0.21630000  0.02360000  1
  C  C1118  1  0.75040000  0.19460000  0.98840000  1
  C  C1119  1  0.78340000  0.16910000  0.98690000  1
  C  C1120  1  0.80740000  0.16500000  0.02220000  1
  C  C1121  1  0.79960000  0.18910000  0.05630000  1
  C  C1122  1  0.48010000  0.12260000  0.93290000  1
  C  C1123  1  0.60380000  0.04730000  0.69820000  1
  C  C1124  1  0.63250000  0.02530000  0.67510000  1
  C  C1125  1  0.65110000  0.04430000  0.64240000  1
  C  C1126  1  0.64160000  0.08400000  0.63090000  1
  C  C1127  1  0.61100000  0.10490000  0.65270000  1
  C  C1128  1  0.59370000  0.08620000  0.68580000  1
  C  C1129  1  0.64420000  0.98200000  0.68560000  1
  C  C1130  1  0.65650000  0.97190000  0.72430000  1
  C  C1131  1  0.66790000  0.93200000  0.73270000  1
  C  C1132  1  0.66770000  0.90270000  0.70220000  1
  C  C1133  1  0.65670000  0.91210000  0.66220000  1
  C  C1134  1  0.64540000  0.95340000  0.65400000  1
  C  C1135  1  0.68080000  0.85970000  0.71210000  1
  C  C1136  1  0.66350000  0.10590000  0.59890000  1
  C  C1137  1  0.69840000  0.08900000  0.58080000  1
  C  C1138  1  0.71850000  0.10690000  0.54950000  1
  C  C1139  1  0.75860000  0.09090000  0.53570000  1
  C  C1140  1  0.76510000  0.04870000  0.53340000  1
  C  C1141  1  0.80410000  0.03470000  0.52560000  1
  C  C1142  1  0.83510000  0.06150000  0.51840000  1
  C  C1143  1  0.82860000  0.10310000  0.51820000  1
  C  C1144  1  0.79040000  0.11760000  0.52720000  1
  C  C1145  1  0.87790000  0.04540000  0.51200000  1
  C  C1146  1  0.64600000  0.91830000  0.89370000  1
  C  C1147  1  0.62660000  0.95320000  0.88200000  1
  C  C1148  1  0.58610000  0.96400000  0.89950000  1
  C  C1149  1  0.68290000  0.90880000  0.87560000  1
  C  C1150  1  0.70200000  0.93600000  0.85070000  1
  C  C1151  1  0.68240000  0.97150000  0.83880000  1
  C  C1152  1  0.64500000  0.97950000  0.85550000  1
  C  C1153  1  0.50990000  0.00810000  0.84330000  1
  C  C1154  1  0.53720000  0.01640000  0.80720000  1
  C  C1155  1  0.53370000  0.99130000  0.77360000  1
  C  C1156  1  0.55540000  0.00040000  0.73840000  1
  C  C1157  1  0.58090000  0.03340000  0.73690000  1
  C  C1158  1  0.58500000  0.05740000  0.77220000  1
  C  C1159  1  0.56090000  0.04960000  0.80630000  1
  C  C1160  1  0.31710000  0.12740000  0.76990000  1
  C  C1161  1  0.55180000  0.20270000  0.64620000  1
  C  C1162  1  0.57490000  0.22470000  0.61750000  1
  C  C1163  1  0.60760000  0.20570000  0.59890000  1
  C  C1164  1  0.61910000  0.16600000  0.60840000  1
  C  C1165  1  0.59730000  0.14510000  0.63900000  1
  C  C1166  1  0.56420000  0.16380000  0.65630000  1
  C  C1167  1  0.56440000  0.26800000  0.60580000  1
  C  C1168  1  0.52570000  0.27810000  0.59350000  1
  C  C1169  1  0.51730000  0.31800000  0.58210000  1
  C  C1170  1  0.54780000  0.34730000  0.58230000  1
  C  C1171  1  0.58780000  0.33790000  0.59330000  1
  C  C1172  1  0.59600000  0.29660000  0.60460000  1
  C  C1173  1  0.53790000  0.39030000  0.56920000  1
  C  C1174  1  0.65110000  0.14410000  0.58650000  1
  C  C1175  1  0.66920000  0.16100000  0.55160000  1
  C  C1176  1  0.70050000  0.14310000  0.53150000  1
  C  C1177  1  0.71430000  0.15910000  0.49140000  1
  C  C1178  1  0.71660000  0.20130000  0.48490000  1
  C  C1179  1  0.72440000  0.21530000  0.44590000  1
  C  C1180  1  0.73160000  0.18850000  0.41490000  1
  C  C1181  1  0.73180000  0.14690000  0.42140000  1
  C  C1182  1  0.72280000  0.13240000  0.45960000  1
  C  C1183  1  0.73800000  0.20460000  0.37210000  1
  C  C1184  1  0.35630000  0.33170000  0.60400000  1
  C  C1185  1  0.36800000  0.29680000  0.62340000  1
  C  C1186  1  0.35050000  0.28600000  0.66390000  1
  C  C1187  1  0.37440000  0.34120000  0.56710000  1
  C  C1188  1  0.39930000  0.31400000  0.54800000  1
  C  C1189  1  0.41120000  0.27850000  0.56760000  1
  C  C1190  1  0.39450000  0.27050000  0.60500000  1
  C  C1191  1  0.40670000  0.24190000  0.74010000  1
  C  C1192  1  0.44280000  0.23360000  0.71280000  1
  C  C1193  1  0.47640000  0.25870000  0.71630000  1
  C  C1194  1  0.51160000  0.24960000  0.69460000  1
  C  C1195  1  0.51310000  0.21660000  0.66910000  1
  C  C1196  1  0.47780000  0.19260000  0.66500000  1
  C  C1197  1  0.44370000  0.20040000  0.68910000  1
  C  C1198  1  0.81710000  0.37260000  0.23010000  1
  C  C1199  1  0.05180000  0.29730000  0.35380000  1
  C  C1200  1  0.07490000  0.27530000  0.38250000  1
  C  C1201  1  0.10760000  0.29430000  0.40110000  1
  C  C1202  1  0.11910000  0.33400000  0.39160000  1
  C  C1203  1  0.09730000  0.35490000  0.36100000  1
  C  C1204  1  0.06420000  0.33620000  0.34370000  1
  C  C1205  1  0.06440000  0.23200000  0.39420000  1
  C  C1206  1  0.02570000  0.22190000  0.40650000  1
  C  C1207  1  0.01730000  0.18200000  0.41790000  1
  C  C1208  1  0.04780000  0.15270000  0.41770000  1
  C  C1209  1  0.08780000  0.16210000  0.40670000  1
  C  C1210  1  0.09600000  0.20340000  0.39540000  1
  C  C1211  1  0.03790000  0.10970000  0.43080000  1
  C  C1212  1  0.15110000  0.35590000  0.41350000  1
  C  C1213  1  0.16920000  0.33900000  0.44840000  1
  C  C1214  1  0.20050000  0.35690000  0.46850000  1
  C  C1215  1  0.21430000  0.34090000  0.50860000  1
  C  C1216  1  0.21660000  0.29870000  0.51510000  1
  C  C1217  1  0.22440000  0.28470000  0.55410000  1
  C  C1218  1  0.23160000  0.31150000  0.58510000  1
  C  C1219  1  0.23180000  0.35310000  0.57860000  1
  C  C1220  1  0.22280000  0.36760000  0.54040000  1
  C  C1221  1  0.23800000  0.29540000  0.62790000  1
  C  C1222  1  0.85630000  0.16830000  0.39600000  1
  C  C1223  1  0.86800000  0.20320000  0.37660000  1
  C  C1224  1  0.85050000  0.21400000  0.33610000  1
  C  C1225  1  0.87440000  0.15880000  0.43290000  1
  C  C1226  1  0.89930000  0.18600000  0.45200000  1
  C  C1227  1  0.91120000  0.22150000  0.43240000  1
  C  C1228  1  0.89450000  0.22950000  0.39500000  1
  C  C1229  1  0.90670000  0.25810000  0.25990000  1
  C  C1230  1  0.94280000  0.26640000  0.28720000  1
  C  C1231  1  0.97640000  0.24130000  0.28370000  1
  C  C1232  1  0.01160000  0.25040000  0.30540000  1
  C  C1233  1  0.01310000  0.28340000  0.33090000  1
  C  C1234  1  0.97780000  0.30740000  0.33500000  1
  C  C1235  1  0.94370000  0.29960000  0.31090000  1
  C  C1236  1  0.37740000  0.06710000  0.98010000  1
  C  C1237  1  0.45270000  0.30180000  0.10380000  1
  C  C1238  1  0.47470000  0.32490000  0.13250000  1
  C  C1239  1  0.45570000  0.35760000  0.15110000  1
  C  C1240  1  0.41600000  0.36910000  0.14160000  1
  C  C1241  1  0.39510000  0.34730000  0.11100000  1
  C  C1242  1  0.41380000  0.31420000  0.09370000  1
  C  C1243  1  0.51800000  0.31440000  0.14420000  1
  C  C1244  1  0.52810000  0.27570000  0.15650000  1
  C  C1245  1  0.56800000  0.26730000  0.16790000  1
  C  C1246  1  0.59730000  0.29780000  0.16770000  1
  C  C1247  1  0.58790000  0.33780000  0.15670000  1
  C  C1248  1  0.54660000  0.34600000  0.14540000  1
  C  C1249  1  0.64030000  0.28790000  0.18080000  1
  C  C1250  1  0.39410000  0.40110000  0.16350000  1
  C  C1251  1  0.41100000  0.41920000  0.19840000  1
  C  C1252  1  0.39310000  0.45050000  0.21850000  1
  C  C1253  1  0.40910000  0.46430000  0.25860000  1
  C  C1254  1  0.45130000  0.46660000  0.26510000  1
  C  C1255  1  0.46530000  0.47440000  0.30410000  1
  C  C1256  1  0.43850000  0.48160000  0.33510000  1
  C  C1257  1  0.39690000  0.48180000  0.32860000  1
  C  C1258  1  0.38240000  0.47280000  0.29040000  1
  C  C1259  1  0.45460000  0.48800000  0.37790000  1
  C  C1260  1  0.58170000  0.10630000  0.14600000  1
  C  C1261  1  0.54680000  0.11800000  0.12660000  1
  C  C1262  1  0.53600000  0.10050000  0.08610000  1
  C  C1263  1  0.59120000  0.12440000  0.18290000  1
  C  C1264  1  0.56400000  0.14930000  0.20200000  1
  C  C1265  1  0.52850000  0.16120000  0.18240000  1
  C  C1266  1  0.52050000  0.14450000  0.14500000  1
  C  C1267  1  0.49190000  0.15670000  0.00990000  1
  C  C1268  1  0.48360000  0.19280000  0.03720000  1
  C  C1269  1  0.50870000  0.22640000  0.03370000  1
  C  C1270  1  0.49960000  0.26160000  0.05540000  1
  C  C1271  1  0.46660000  0.26310000  0.08090000  1
  C  C1272  1  0.44260000  0.22780000  0.08500000  1
  C  C1273  1  0.45040000  0.19370000  0.06090000  1
  C  C1274  1  0.68290000  0.62740000  0.73010000  1
  C  C1275  1  0.44820000  0.70270000  0.85380000  1
  C  C1276  1  0.42510000  0.72470000  0.88250000  1
  C  C1277  1  0.39240000  0.70570000  0.90110000  1
  C  C1278  1  0.38090000  0.66600000  0.89160000  1
  C  C1279  1  0.40270000  0.64510000  0.86100000  1
  C  C1280  1  0.43580000  0.66380000  0.84370000  1
  C  C1281  1  0.43560000  0.76800000  0.89420000  1
  C  C1282  1  0.47430000  0.77810000  0.90650000  1
  C  C1283  1  0.48270000  0.81800000  0.91790000  1
  C  C1284  1  0.45220000  0.84730000  0.91770000  1
  C  C1285  1  0.41220000  0.83790000  0.90670000  1
  C  C1286  1  0.40400000  0.79660000  0.89540000  1
  C  C1287  1  0.46210000  0.89030000  0.93080000  1
  C  C1288  1  0.34890000  0.64410000  0.91350000  1
  C  C1289  1  0.33080000  0.66100000  0.94840000  1
  C  C1290  1  0.29950000  0.64310000  0.96850000  1
  C  C1291  1  0.28570000  0.65910000  0.00860000  1
  C  C1292  1  0.28340000  0.70130000  0.01510000  1
  C  C1293  1  0.27560000  0.71530000  0.05410000  1
  C  C1294  1  0.26840000  0.68850000  0.08510000  1
  C  C1295  1  0.26820000  0.64690000  0.07860000  1
  C  C1296  1  0.27720000  0.63240000  0.04040000  1
  C  C1297  1  0.26200000  0.70460000  0.12790000  1
  C  C1298  1  0.64370000  0.83170000  0.89600000  1
  C  C1299  1  0.63200000  0.79680000  0.87660000  1
  C  C1300  1  0.64950000  0.78600000  0.83610000  1
  C  C1301  1  0.62560000  0.84120000  0.93290000  1
  C  C1302  1  0.60070000  0.81400000  0.95200000  1
  C  C1303  1  0.58880000  0.77850000  0.93240000  1
  C  C1304  1  0.60550000  0.77050000  0.89500000  1
  C  C1305  1  0.59330000  0.74190000  0.75990000  1
  C  C1306  1  0.55720000  0.73360000  0.78720000  1
  C  C1307  1  0.52360000  0.75870000  0.78370000  1
  C  C1308  1  0.48840000  0.74960000  0.80540000  1
  C  C1309  1  0.48690000  0.71660000  0.83090000  1
  C  C1310  1  0.52220000  0.69260000  0.83500000  1
  C  C1311  1  0.55630000  0.70040000  0.81090000  1
  C  C1312  1  0.12260000  0.93290000  0.48010000  1
  C  C1313  1  0.04730000  0.69820000  0.60380000  1
  C  C1314  1  0.02530000  0.67510000  0.63250000  1
  C  C1315  1  0.04430000  0.64240000  0.65110000  1
  C  C1316  1  0.08400000  0.63090000  0.64160000  1
  C  C1317  1  0.10490000  0.65270000  0.61100000  1
  C  C1318  1  0.08620000  0.68580000  0.59370000  1
  C  C1319  1  0.98200000  0.68560000  0.64420000  1
  C  C1320  1  0.97190000  0.72430000  0.65650000  1
  C  C1321  1  0.93200000  0.73270000  0.66790000  1
  C  C1322  1  0.90270000  0.70220000  0.66770000  1
  C  C1323  1  0.91210000  0.66220000  0.65670000  1
  C  C1324  1  0.95340000  0.65400000  0.64540000  1
  C  C1325  1  0.85970000  0.71210000  0.68080000  1
  C  C1326  1  0.10590000  0.59890000  0.66350000  1
  C  C1327  1  0.08900000  0.58080000  0.69840000  1
  C  C1328  1  0.10690000  0.54950000  0.71850000  1
  C  C1329  1  0.09090000  0.53570000  0.75860000  1
  C  C1330  1  0.04870000  0.53340000  0.76510000  1
  C  C1331  1  0.03470000  0.52560000  0.80410000  1
  C  C1332  1  0.06150000  0.51840000  0.83510000  1
  C  C1333  1  0.10310000  0.51820000  0.82860000  1
  C  C1334  1  0.11760000  0.52720000  0.79040000  1
  C  C1335  1  0.04540000  0.51200000  0.87790000  1
  C  C1336  1  0.91830000  0.89370000  0.64600000  1
  C  C1337  1  0.95320000  0.88200000  0.62660000  1
  C  C1338  1  0.96400000  0.89950000  0.58610000  1
  C  C1339  1  0.90880000  0.87560000  0.68290000  1
  C  C1340  1  0.93600000  0.85070000  0.70200000  1
  C  C1341  1  0.97150000  0.83880000  0.68240000  1
  C  C1342  1  0.97950000  0.85550000  0.64500000  1
  C  C1343  1  0.00810000  0.84330000  0.50990000  1
  C  C1344  1  0.01640000  0.80720000  0.53720000  1
  C  C1345  1  0.99130000  0.77360000  0.53370000  1
  C  C1346  1  0.00040000  0.73840000  0.55540000  1
  C  C1347  1  0.03340000  0.73690000  0.58090000  1
  C  C1348  1  0.05740000  0.77220000  0.58500000  1
  C  C1349  1  0.04960000  0.80630000  0.56090000  1
  C  C1350  1  0.18290000  0.87260000  0.26990000  1
  C  C1351  1  0.94820000  0.79730000  0.14620000  1
  C  C1352  1  0.92510000  0.77530000  0.11750000  1
  C  C1353  1  0.89240000  0.79430000  0.09890000  1
  C  C1354  1  0.88090000  0.83400000  0.10840000  1
  C  C1355  1  0.90270000  0.85490000  0.13900000  1
  C  C1356  1  0.93580000  0.83620000  0.15630000  1
  C  C1357  1  0.93560000  0.73200000  0.10580000  1
  C  C1358  1  0.97430000  0.72190000  0.09350000  1
  C  C1359  1  0.98270000  0.68200000  0.08210000  1
  C  C1360  1  0.95220000  0.65270000  0.08230000  1
  C  C1361  1  0.91220000  0.66210000  0.09330000  1
  C  C1362  1  0.90400000  0.70340000  0.10460000  1
  C  C1363  1  0.96210000  0.60970000  0.06920000  1
  C  C1364  1  0.84890000  0.85590000  0.08650000  1
  C  C1365  1  0.83080000  0.83900000  0.05160000  1
  C  C1366  1  0.79950000  0.85690000  0.03150000  1
  C  C1367  1  0.78570000  0.84090000  0.99140000  1
  C  C1368  1  0.78340000  0.79870000  0.98490000  1
  C  C1369  1  0.77560000  0.78470000  0.94590000  1
  C  C1370  1  0.76840000  0.81150000  0.91490000  1
  C  C1371  1  0.76820000  0.85310000  0.92140000  1
  C  C1372  1  0.77720000  0.86760000  0.95960000  1
  C  C1373  1  0.76200000  0.79540000  0.87210000  1
  C  C1374  1  0.14370000  0.66830000  0.10400000  1
  C  C1375  1  0.13200000  0.70320000  0.12340000  1
  C  C1376  1  0.14950000  0.71400000  0.16390000  1
  C  C1377  1  0.12560000  0.65880000  0.06710000  1
  C  C1378  1  0.10070000  0.68600000  0.04800000  1
  C  C1379  1  0.08880000  0.72150000  0.06760000  1
  C  C1380  1  0.10550000  0.72950000  0.10500000  1
  C  C1381  1  0.09330000  0.75810000  0.24010000  1
  C  C1382  1  0.05720000  0.76640000  0.21280000  1
  C  C1383  1  0.02360000  0.74130000  0.21630000  1
  C  C1384  1  0.98840000  0.75040000  0.19460000  1
  C  C1385  1  0.98690000  0.78340000  0.16910000  1
  C  C1386  1  0.02220000  0.80740000  0.16500000  1
  C  C1387  1  0.05630000  0.79960000  0.18910000  1
  C  C1388  1  0.87740000  0.43290000  0.01990000  1
  C  C1389  1  0.95270000  0.19820000  0.89620000  1
  C  C1390  1  0.97470000  0.17510000  0.86750000  1
  C  C1391  1  0.95570000  0.14240000  0.84890000  1
  C  C1392  1  0.91600000  0.13090000  0.85840000  1
  C  C1393  1  0.89510000  0.15270000  0.88900000  1
  C  C1394  1  0.91380000  0.18580000  0.90630000  1
  C  C1395  1  0.01800000  0.18560000  0.85580000  1
  C  C1396  1  0.02810000  0.22430000  0.84350000  1
  C  C1397  1  0.06800000  0.23270000  0.83210000  1
  C  C1398  1  0.09730000  0.20220000  0.83230000  1
  C  C1399  1  0.08790000  0.16220000  0.84330000  1
  C  C1400  1  0.04660000  0.15400000  0.85460000  1
  C  C1401  1  0.14030000  0.21210000  0.81920000  1
  C  C1402  1  0.89410000  0.09890000  0.83650000  1
  C  C1403  1  0.91100000  0.08080000  0.80160000  1
  C  C1404  1  0.89310000  0.04950000  0.78150000  1
  C  C1405  1  0.90910000  0.03570000  0.74140000  1
  C  C1406  1  0.95130000  0.03340000  0.73490000  1
  C  C1407  1  0.96530000  0.02560000  0.69590000  1
  C  C1408  1  0.93850000  0.01840000  0.66490000  1
  C  C1409  1  0.89690000  0.01820000  0.67140000  1
  C  C1410  1  0.88240000  0.02720000  0.70960000  1
  C  C1411  1  0.95460000  0.01200000  0.62210000  1
  C  C1412  1  0.08170000  0.39370000  0.85400000  1
  C  C1413  1  0.04680000  0.38200000  0.87340000  1
  C  C1414  1  0.03600000  0.39950000  0.91390000  1
  C  C1415  1  0.09120000  0.37560000  0.81710000  1
  C  C1416  1  0.06400000  0.35070000  0.79800000  1
  C  C1417  1  0.02850000  0.33880000  0.81760000  1
  C  C1418  1  0.02050000  0.35550000  0.85500000  1
  C  C1419  1  0.99190000  0.34330000  0.99010000  1
  C  C1420  1  0.98360000  0.30720000  0.96280000  1
  C  C1421  1  0.00870000  0.27360000  0.96630000  1
  C  C1422  1  0.99960000  0.23840000  0.94460000  1
  C  C1423  1  0.96660000  0.23690000  0.91910000  1
  C  C1424  1  0.94260000  0.27220000  0.91500000  1
  C  C1425  1  0.95040000  0.30630000  0.93910000  1
  C  C1426  1  0.62260000  0.56710000  0.51990000  1
  C  C1427  1  0.54730000  0.80180000  0.39620000  1
  C  C1428  1  0.52530000  0.82490000  0.36750000  1
  C  C1429  1  0.54430000  0.85760000  0.34890000  1
  C  C1430  1  0.58400000  0.86910000  0.35840000  1
  C  C1431  1  0.60490000  0.84730000  0.38900000  1
  C  C1432  1  0.58620000  0.81420000  0.40630000  1
  C  C1433  1  0.48200000  0.81440000  0.35580000  1
  C  C1434  1  0.47190000  0.77570000  0.34350000  1
  C  C1435  1  0.43200000  0.76730000  0.33210000  1
  C  C1436  1  0.40270000  0.79780000  0.33230000  1
  C  C1437  1  0.41210000  0.83780000  0.34330000  1
  C  C1438  1  0.45340000  0.84600000  0.35460000  1
  C  C1439  1  0.35970000  0.78790000  0.31920000  1
  C  C1440  1  0.60590000  0.90110000  0.33650000  1
  C  C1441  1  0.58900000  0.91920000  0.30160000  1
  C  C1442  1  0.60690000  0.95050000  0.28150000  1
  C  C1443  1  0.59090000  0.96430000  0.24140000  1
  C  C1444  1  0.54870000  0.96660000  0.23490000  1
  C  C1445  1  0.53470000  0.97440000  0.19590000  1
  C  C1446  1  0.56150000  0.98160000  0.16490000  1
  C  C1447  1  0.60310000  0.98180000  0.17140000  1
  C  C1448  1  0.61760000  0.97280000  0.20960000  1
  C  C1449  1  0.54540000  0.98800000  0.12210000  1
  C  C1450  1  0.41830000  0.60630000  0.35400000  1
  C  C1451  1  0.45320000  0.61800000  0.37340000  1
  C  C1452  1  0.46400000  0.60050000  0.41390000  1
  C  C1453  1  0.40880000  0.62440000  0.31710000  1
  C  C1454  1  0.43600000  0.64930000  0.29800000  1
  C  C1455  1  0.47150000  0.66120000  0.31760000  1
  C  C1456  1  0.47950000  0.64450000  0.35500000  1
  C  C1457  1  0.50810000  0.65670000  0.49010000  1
  C  C1458  1  0.51640000  0.69280000  0.46280000  1
  C  C1459  1  0.49130000  0.72640000  0.46630000  1
  C  C1460  1  0.50040000  0.76160000  0.44460000  1
  C  C1461  1  0.53340000  0.76310000  0.41910000  1
  C  C1462  1  0.55740000  0.72780000  0.41500000  1
  C  C1463  1  0.54960000  0.69370000  0.43910000  1
  O  O1464  1  0.79330000  0.28240000  0.13400000  1
  O  O1465  1  0.75584000  0.32175000  0.27429000  1
  O  O1466  1  0.56777000  0.56545000  0.41671000  1
  O  O1467  1  0.56015000  0.50107000  0.39519000  1
  O  O1468  1  0.34751000  0.75770000  0.18186000  1
  O  O1469  1  0.36466000  0.72162000  0.23779000  1
  O  O1470  1  0.70157000  0.27472000  0.24862000  1
  O  O1471  1  0.67770000  0.35140000  0.25110000  1
  O  O1472  1  0.76500000  0.40630000  0.27240000  1
  O  O1473  1  0.74440000  0.37900000  0.21390000  1
  O  O1474  1  0.74900000  0.33320000  0.14970000  1
  O  O1475  1  0.68420000  0.33370000  0.31240000  1
  O  O1476  1  0.78534000  0.28534000  0.21466000  1
  O  O1477  1  0.71078000  0.21078000  0.28922000  1
  O  O1478  1  0.46760000  0.04330000  0.88400000  1
  O  O1479  1  0.42825000  0.00584000  0.02429000  1
  O  O1480  1  0.18455000  0.81777000  0.16671000  1
  O  O1481  1  0.24893000  0.81015000  0.14519000  1
  O  O1482  1  0.99230000  0.59751000  0.93186000  1
  O  O1483  1  0.02838000  0.61466000  0.98779000  1
  O  O1484  1  0.47528000  0.95157000  0.99862000  1
  O  O1485  1  0.39860000  0.92770000  0.00110000  1
  O  O1486  1  0.34370000  0.01500000  0.02240000  1
  O  O1487  1  0.37100000  0.99440000  0.96390000  1
  O  O1488  1  0.41680000  0.99900000  0.89970000  1
  O  O1489  1  0.41630000  0.93420000  0.06240000  1
  O  O1490  1  0.46466000  0.03534000  0.96466000  1
  O  O1491  1  0.53922000  0.96078000  0.03922000  1
  O  O1492  1  0.70670000  0.71760000  0.63400000  1
  O  O1493  1  0.74416000  0.67825000  0.77429000  1
  O  O1494  1  0.93223000  0.43455000  0.91671000  1
  O  O1495  1  0.93985000  0.49893000  0.89519000  1
  O  O1496  1  0.15249000  0.24230000  0.68186000  1
  O  O1497  1  0.13534000  0.27838000  0.73779000  1
  O  O1498  1  0.79843000  0.72528000  0.74862000  1
  O  O1499  1  0.82230000  0.64860000  0.75110000  1
  O  O1500  1  0.73500000  0.59370000  0.77240000  1
  O  O1501  1  0.75560000  0.62100000  0.71390000  1
  O  O1502  1  0.75100000  0.66680000  0.64970000  1
  O  O1503  1  0.81580000  0.66630000  0.81240000  1
  O  O1504  1  0.71466000  0.71466000  0.71466000  1
  O  O1505  1  0.78922000  0.78922000  0.78922000  1
  O  O1506  1  0.03240000  0.95670000  0.38400000  1
  O  O1507  1  0.07175000  0.99416000  0.52429000  1
  O  O1508  1  0.31545000  0.18223000  0.66666667  1
  O  O1509  1  0.25107000  0.18985000  0.64519000  1
  O  O1510  1  0.50770000  0.40249000  0.43186000  1
  O  O1511  1  0.47162000  0.38534000  0.48779000  1
  O  O1512  1  0.02472000  0.04843000  0.49862000  1
  O  O1513  1  0.10140000  0.07230000  0.50110000  1
  O  O1514  1  0.15630000  0.98500000  0.52240000  1
  O  O1515  1  0.12900000  0.00560000  0.46390000  1
  O  O1516  1  0.08320000  0.00100000  0.39970000  1
  O  O1517  1  0.08370000  0.06580000  0.56240000  1
  O  O1518  1  0.03534000  0.96466000  0.46466000  1
  O  O1519  1  0.96078000  0.03922000  0.53922000  1
  O  O1520  1  0.29330000  0.21760000  0.86600000  1
  O  O1521  1  0.25584000  0.17825000  0.72571000  1
  O  O1522  1  0.06777000  0.93455000  0.58329000  1
  O  O1523  1  0.06015000  0.99893000  0.60481000  1
  O  O1524  1  0.84751000  0.74230000  0.81814000  1
  O  O1525  1  0.86466000  0.77838000  0.76221000  1
  O  O1526  1  0.20157000  0.22528000  0.75138000  1
  O  O1527  1  0.17770000  0.14860000  0.74890000  1
  O  O1528  1  0.26500000  0.09370000  0.72760000  1
  O  O1529  1  0.24440000  0.12100000  0.78610000  1
  O  O1530  1  0.24900000  0.16680000  0.85030000  1
  O  O1531  1  0.18420000  0.16630000  0.68760000  1
  O  O1532  1  0.28534000  0.21466000  0.78534000  1
  O  O1533  1  0.21078000  0.28922000  0.71078000  1
  O  O1534  1  0.53240000  0.54330000  0.61600000  1
  O  O1535  1  0.57175000  0.50584000  0.47571000  1
  O  O1536  1  0.81545000  0.31777000  0.33329000  1
  O  O1537  1  0.75107000  0.31015000  0.35481000  1
  O  O1538  1  0.00770000  0.09751000  0.56814000  1
  O  O1539  1  0.97162000  0.11466000  0.51221000  1
  O  O1540  1  0.52472000  0.45157000  0.50138000  1
  O  O1541  1  0.60140000  0.42770000  0.49890000  1
  O  O1542  1  0.65630000  0.51500000  0.47760000  1
  O  O1543  1  0.62900000  0.49440000  0.53610000  1
  O  O1544  1  0.58320000  0.49900000  0.60030000  1
  O  O1545  1  0.58370000  0.43420000  0.43760000  1
  O  O1546  1  0.53534000  0.53534000  0.53534000  1
  O  O1547  1  0.46078000  0.46078000  0.46078000  1
  O  O1548  1  0.20670000  0.78240000  0.36600000  1
  O  O1549  1  0.24416000  0.82175000  0.22571000  1
  O  O1550  1  0.43223000  0.06545000  0.08329000  1
  O  O1551  1  0.43985000  0.00107000  0.10481000  1
  O  O1552  1  0.65249000  0.25770000  0.31814000  1
  O  O1553  1  0.63534000  0.22162000  0.26221000  1
  O  O1554  1  0.29843000  0.77472000  0.25138000  1
  O  O1555  1  0.32230000  0.85140000  0.24890000  1
  O  O1556  1  0.23500000  0.90630000  0.22760000  1
  O  O1557  1  0.25560000  0.87900000  0.28610000  1
  O  O1558  1  0.25100000  0.83320000  0.35030000  1
  O  O1559  1  0.31580000  0.83370000  0.18760000  1
  O  O1560  1  0.21466000  0.78534000  0.28534000  1
  O  O1561  1  0.28922000  0.71078000  0.21078000  1
  O  O1562  1  0.96760000  0.45670000  0.11600000  1
  O  O1563  1  0.92825000  0.49416000  0.97571000  1
  O  O1564  1  0.68455000  0.68223000  0.83329000  1
  O  O1565  1  0.74893000  0.68985000  0.85481000  1
  O  O1566  1  0.49230000  0.90249000  0.06814000  1
  O  O1567  1  0.52838000  0.88534000  0.01221000  1
  O  O1568  1  0.97528000  0.54843000  0.00138000  1
  O  O1569  1  0.89860000  0.57230000  0.99890000  1
  O  O1570  1  0.84370000  0.48500000  0.97760000  1
  O  O1571  1  0.87100000  0.50560000  0.03610000  1
  O  O1572  1  0.91680000  0.50100000  0.10030000  1
  O  O1573  1  0.91630000  0.56580000  0.93760000  1
  O  O1574  1  0.96466000  0.46466000  0.03534000  1
  O  O1575  1  0.03922000  0.53922000  0.96078000  1
  O  O1576  1  0.13400000  0.79330000  0.28240000  1
  O  O1577  1  0.27429000  0.75584000  0.32175000  1
  O  O1578  1  0.41671000  0.56777000  0.56545000  1
  O  O1579  1  0.39519000  0.56015000  0.50107000  1
  O  O1580  1  0.18186000  0.34751000  0.75770000  1
  O  O1581  1  0.23779000  0.36466000  0.72162000  1
  O  O1582  1  0.24862000  0.70157000  0.27472000  1
  O  O1583  1  0.25110000  0.67770000  0.35140000  1
  O  O1584  1  0.27240000  0.76500000  0.40630000  1
  O  O1585  1  0.21390000  0.74440000  0.37900000  1
  O  O1586  1  0.14970000  0.74900000  0.33320000  1
  O  O1587  1  0.31240000  0.68420000  0.33370000  1
  O  O1588  1  0.95670000  0.38400000  0.03240000  1
  O  O1589  1  0.99416000  0.52429000  0.07175000  1
  O  O1590  1  0.18223000  0.66666667  0.31545000  1
  O  O1591  1  0.18985000  0.64519000  0.25107000  1
  O  O1592  1  0.40249000  0.43186000  0.50770000  1
  O  O1593  1  0.38534000  0.48779000  0.47162000  1
  O  O1594  1  0.04843000  0.49862000  0.02472000  1
  O  O1595  1  0.07230000  0.50110000  0.10140000  1
  O  O1596  1  0.98500000  0.52240000  0.15630000  1
  O  O1597  1  0.00560000  0.46390000  0.12900000  1
  O  O1598  1  0.00100000  0.39970000  0.08320000  1
  O  O1599  1  0.06580000  0.56240000  0.08370000  1
  O  O1600  1  0.36600000  0.20670000  0.78240000  1
  O  O1601  1  0.22571000  0.24416000  0.82175000  1
  O  O1602  1  0.08329000  0.43223000  0.06545000  1
  O  O1603  1  0.10481000  0.43985000  0.00107000  1
  O  O1604  1  0.31814000  0.65249000  0.25770000  1
  O  O1605  1  0.26221000  0.63534000  0.22162000  1
  O  O1606  1  0.25138000  0.29843000  0.77472000  1
  O  O1607  1  0.24890000  0.32230000  0.85140000  1
  O  O1608  1  0.22760000  0.23500000  0.90630000  1
  O  O1609  1  0.28610000  0.25560000  0.87900000  1
  O  O1610  1  0.35030000  0.25100000  0.83320000  1
  O  O1611  1  0.18760000  0.31580000  0.83370000  1
  O  O1612  1  0.54330000  0.61600000  0.53240000  1
  O  O1613  1  0.50584000  0.47571000  0.57175000  1
  O  O1614  1  0.31777000  0.33329000  0.81545000  1
  O  O1615  1  0.31015000  0.35481000  0.75107000  1
  O  O1616  1  0.09751000  0.56814000  0.00770000  1
  O  O1617  1  0.11466000  0.51221000  0.97162000  1
  O  O1618  1  0.45157000  0.50138000  0.52472000  1
  O  O1619  1  0.42770000  0.49890000  0.60140000  1
  O  O1620  1  0.51500000  0.47760000  0.65630000  1
  O  O1621  1  0.49440000  0.53610000  0.62900000  1
  O  O1622  1  0.49900000  0.60030000  0.58320000  1
  O  O1623  1  0.43420000  0.43760000  0.58370000  1
  O  O1624  1  0.63400000  0.70670000  0.71760000  1
  O  O1625  1  0.77429000  0.74416000  0.67825000  1
  O  O1626  1  0.91671000  0.93223000  0.43455000  1
  O  O1627  1  0.89519000  0.93985000  0.49893000  1
  O  O1628  1  0.68186000  0.15249000  0.24230000  1
  O  O1629  1  0.73779000  0.13534000  0.27838000  1
  O  O1630  1  0.74862000  0.79843000  0.72528000  1
  O  O1631  1  0.75110000  0.82230000  0.64860000  1
  O  O1632  1  0.77240000  0.73500000  0.59370000  1
  O  O1633  1  0.71390000  0.75560000  0.62100000  1
  O  O1634  1  0.64970000  0.75100000  0.66680000  1
  O  O1635  1  0.81240000  0.81580000  0.66630000  1
  O  O1636  1  0.04330000  0.88400000  0.46760000  1
  O  O1637  1  0.00584000  0.02429000  0.42825000  1
  O  O1638  1  0.81777000  0.16671000  0.18455000  1
  O  O1639  1  0.81015000  0.14519000  0.24893000  1
  O  O1640  1  0.59751000  0.93186000  0.99230000  1
  O  O1641  1  0.61466000  0.98779000  0.02838000  1
  O  O1642  1  0.95157000  0.99862000  0.47528000  1
  O  O1643  1  0.92770000  0.00110000  0.39860000  1
  O  O1644  1  0.01500000  0.02240000  0.34370000  1
  O  O1645  1  0.99440000  0.96390000  0.37100000  1
  O  O1646  1  0.99900000  0.89970000  0.41680000  1
  O  O1647  1  0.93420000  0.06240000  0.41630000  1
  O  O1648  1  0.86600000  0.29330000  0.21760000  1
  O  O1649  1  0.72571000  0.25584000  0.17825000  1
  O  O1650  1  0.58329000  0.06777000  0.93455000  1
  O  O1651  1  0.60481000  0.06015000  0.99893000  1
  O  O1652  1  0.81814000  0.84751000  0.74230000  1
  O  O1653  1  0.76221000  0.86466000  0.77838000  1
  O  O1654  1  0.75138000  0.20157000  0.22528000  1
  O  O1655  1  0.74890000  0.17770000  0.14860000  1
  O  O1656  1  0.72760000  0.26500000  0.09370000  1
  O  O1657  1  0.78610000  0.24440000  0.12100000  1
  O  O1658  1  0.85030000  0.24900000  0.16680000  1
  O  O1659  1  0.68760000  0.18420000  0.16630000  1
  O  O1660  1  0.45670000  0.11600000  0.96760000  1
  O  O1661  1  0.49416000  0.97571000  0.92825000  1
  O  O1662  1  0.68223000  0.83329000  0.68455000  1
  O  O1663  1  0.68985000  0.85481000  0.74893000  1
  O  O1664  1  0.90249000  0.06814000  0.49230000  1
  O  O1665  1  0.88534000  0.01221000  0.52838000  1
  O  O1666  1  0.54843000  0.00138000  0.97528000  1
  O  O1667  1  0.57230000  0.99890000  0.89860000  1
  O  O1668  1  0.48500000  0.97760000  0.84370000  1
  O  O1669  1  0.50560000  0.03610000  0.87100000  1
  O  O1670  1  0.50100000  0.10030000  0.91680000  1
  O  O1671  1  0.56580000  0.93760000  0.91630000  1
  O  O1672  1  0.28240000  0.13400000  0.79330000  1
  O  O1673  1  0.32175000  0.27429000  0.75584000  1
  O  O1674  1  0.56545000  0.41671000  0.56777000  1
  O  O1675  1  0.50107000  0.39519000  0.56015000  1
  O  O1676  1  0.75770000  0.18186000  0.34751000  1
  O  O1677  1  0.72162000  0.23779000  0.36466000  1
  O  O1678  1  0.27472000  0.24862000  0.70157000  1
  O  O1679  1  0.35140000  0.25110000  0.67770000  1
  O  O1680  1  0.40630000  0.27240000  0.76500000  1
  O  O1681  1  0.37900000  0.21390000  0.74440000  1
  O  O1682  1  0.33320000  0.14970000  0.74900000  1
  O  O1683  1  0.33370000  0.31240000  0.68420000  1
  O  O1684  1  0.78240000  0.36600000  0.20670000  1
  O  O1685  1  0.82175000  0.22571000  0.24416000  1
  O  O1686  1  0.06545000  0.08329000  0.43223000  1
  O  O1687  1  0.00107000  0.10481000  0.43985000  1
  O  O1688  1  0.25770000  0.31814000  0.65249000  1
  O  O1689  1  0.22162000  0.26221000  0.63534000  1
  O  O1690  1  0.77472000  0.25138000  0.29843000  1
  O  O1691  1  0.85140000  0.24890000  0.32230000  1
  O  O1692  1  0.90630000  0.22760000  0.23500000  1
  O  O1693  1  0.87900000  0.28610000  0.25560000  1
  O  O1694  1  0.83320000  0.35030000  0.25100000  1
  O  O1695  1  0.83370000  0.18760000  0.31580000  1
  O  O1696  1  0.38400000  0.03240000  0.95670000  1
  O  O1697  1  0.52429000  0.07175000  0.99416000  1
  O  O1698  1  0.66666667  0.31545000  0.18223000  1
  O  O1699  1  0.64519000  0.25107000  0.18985000  1
  O  O1700  1  0.43186000  0.50770000  0.40249000  1
  O  O1701  1  0.48779000  0.47162000  0.38534000  1
  O  O1702  1  0.49862000  0.02472000  0.04843000  1
  O  O1703  1  0.50110000  0.10140000  0.07230000  1
  O  O1704  1  0.52240000  0.15630000  0.98500000  1
  O  O1705  1  0.46390000  0.12900000  0.00560000  1
  O  O1706  1  0.39970000  0.08320000  0.00100000  1
  O  O1707  1  0.56240000  0.08370000  0.06580000  1
  O  O1708  1  0.71760000  0.63400000  0.70670000  1
  O  O1709  1  0.67825000  0.77429000  0.74416000  1
  O  O1710  1  0.43455000  0.91671000  0.93223000  1
  O  O1711  1  0.49893000  0.89519000  0.93985000  1
  O  O1712  1  0.24230000  0.68186000  0.15249000  1
  O  O1713  1  0.27838000  0.73779000  0.13534000  1
  O  O1714  1  0.72528000  0.74862000  0.79843000  1
  O  O1715  1  0.64860000  0.75110000  0.82230000  1
  O  O1716  1  0.59370000  0.77240000  0.73500000  1
  O  O1717  1  0.62100000  0.71390000  0.75560000  1
  O  O1718  1  0.66680000  0.64970000  0.75100000  1
  O  O1719  1  0.66630000  0.81240000  0.81580000  1
  O  O1720  1  0.11600000  0.96760000  0.45670000  1
  O  O1721  1  0.97571000  0.92825000  0.49416000  1
  O  O1722  1  0.83329000  0.68455000  0.68223000  1
  O  O1723  1  0.85481000  0.74893000  0.68985000  1
  O  O1724  1  0.06814000  0.49230000  0.90249000  1
  O  O1725  1  0.01221000  0.52838000  0.88534000  1
  O  O1726  1  0.00138000  0.97528000  0.54843000  1
  O  O1727  1  0.99890000  0.89860000  0.57230000  1
  O  O1728  1  0.97760000  0.84370000  0.48500000  1
  O  O1729  1  0.03610000  0.87100000  0.50560000  1
  O  O1730  1  0.10030000  0.91680000  0.50100000  1
  O  O1731  1  0.93760000  0.91630000  0.56580000  1
  O  O1732  1  0.21760000  0.86600000  0.29330000  1
  O  O1733  1  0.17825000  0.72571000  0.25584000  1
  O  O1734  1  0.93455000  0.58329000  0.06777000  1
  O  O1735  1  0.99893000  0.60481000  0.06015000  1
  O  O1736  1  0.74230000  0.81814000  0.84751000  1
  O  O1737  1  0.77838000  0.76221000  0.86466000  1
  O  O1738  1  0.22528000  0.75138000  0.20157000  1
  O  O1739  1  0.14860000  0.74890000  0.17770000  1
  O  O1740  1  0.09370000  0.72760000  0.26500000  1
  O  O1741  1  0.12100000  0.78610000  0.24440000  1
  O  O1742  1  0.16680000  0.85030000  0.24900000  1
  O  O1743  1  0.16630000  0.68760000  0.18420000  1
  O  O1744  1  0.88400000  0.46760000  0.04330000  1
  O  O1745  1  0.02429000  0.42825000  0.00584000  1
  O  O1746  1  0.16671000  0.18455000  0.81777000  1
  O  O1747  1  0.14519000  0.24893000  0.81015000  1
  O  O1748  1  0.93186000  0.99230000  0.59751000  1
  O  O1749  1  0.98779000  0.02838000  0.61466000  1
  O  O1750  1  0.99862000  0.47528000  0.95157000  1
  O  O1751  1  0.00110000  0.39860000  0.92770000  1
  O  O1752  1  0.02240000  0.34370000  0.01500000  1
  O  O1753  1  0.96390000  0.37100000  0.99440000  1
  O  O1754  1  0.89970000  0.41680000  0.99900000  1
  O  O1755  1  0.06240000  0.41630000  0.93420000  1
  O  O1756  1  0.61600000  0.53240000  0.54330000  1
  O  O1757  1  0.47571000  0.57175000  0.50584000  1
  O  O1758  1  0.33329000  0.81545000  0.31777000  1
  O  O1759  1  0.35481000  0.75107000  0.31015000  1
  O  O1760  1  0.56814000  0.00770000  0.09751000  1
  O  O1761  1  0.51221000  0.97162000  0.11466000  1
  O  O1762  1  0.50138000  0.52472000  0.45157000  1
  O  O1763  1  0.49890000  0.60140000  0.42770000  1
  O  O1764  1  0.47760000  0.65630000  0.51500000  1
  O  O1765  1  0.53610000  0.62900000  0.49440000  1
  O  O1766  1  0.60030000  0.58320000  0.49900000  1
  O  O1767  1  0.43760000  0.58370000  0.43420000  1
