# generated using pymatgen
data_Zr6H54C93O41
_symmetry_space_group_name_H-M   'P 1'
_cell_length_a   32.87070000
_cell_length_b   32.87070000
_cell_length_c   32.87070000
_cell_angle_alpha   90.00000000
_cell_angle_beta   90.00000000
_cell_angle_gamma   90.00000000
_symmetry_Int_Tables_number   1
_chemical_formula_structural   Zr6H54C93O41
_chemical_formula_sum   'Zr48 H432 C744 O328'
_cell_volume   35516.22986881
_cell_formula_units_Z   8
loop_
 _symmetry_equiv_pos_site_id
 _symmetry_equiv_pos_as_xyz
  1  'x, y, z'
loop_
 _atom_site_type_symbol
 _atom_site_label
 _atom_site_symmetry_multiplicity
 _atom_site_fract_x
 _atom_site_fract_y
 _atom_site_fract_z
 _atom_site_occupancy
  Zr  Zr0  1  0.47262000  0.03064000  0.44254000  1
  Zr  Zr1  1  0.43304000  0.01827000  0.54086000  1
  Zr  Zr2  1  0.02738000  0.96936000  0.94254000  1
  Zr  Zr3  1  0.06696000  0.98173000  0.04086000  1
  Zr  Zr4  1  0.52738000  0.53064000  0.05746000  1
  Zr  Zr5  1  0.56696000  0.51827000  0.95914000  1
  Zr  Zr6  1  0.97262000  0.46936000  0.55746000  1
  Zr  Zr7  1  0.93304000  0.48173000  0.45914000  1
  Zr  Zr8  1  0.44254000  0.47262000  0.03064000  1
  Zr  Zr9  1  0.54086000  0.43304000  0.01827000  1
  Zr  Zr10  1  0.94254000  0.02738000  0.96936000  1
  Zr  Zr11  1  0.04086000  0.06696000  0.98173000  1
  Zr  Zr12  1  0.05746000  0.52738000  0.53064000  1
  Zr  Zr13  1  0.95914000  0.56696000  0.51827000  1
  Zr  Zr14  1  0.55746000  0.97262000  0.46936000  1
  Zr  Zr15  1  0.45914000  0.93304000  0.48173000  1
  Zr  Zr16  1  0.03064000  0.44254000  0.47262000  1
  Zr  Zr17  1  0.01827000  0.54086000  0.43304000  1
  Zr  Zr18  1  0.96936000  0.94254000  0.02738000  1
  Zr  Zr19  1  0.98173000  0.04086000  0.06696000  1
  Zr  Zr20  1  0.53064000  0.05746000  0.52738000  1
  Zr  Zr21  1  0.51827000  0.95914000  0.56696000  1
  Zr  Zr22  1  0.46936000  0.55746000  0.97262000  1
  Zr  Zr23  1  0.48173000  0.45914000  0.93304000  1
  Zr  Zr24  1  0.28064000  0.22262000  0.30746000  1
  Zr  Zr25  1  0.26827000  0.18304000  0.20914000  1
  Zr  Zr26  1  0.21936000  0.77738000  0.80746000  1
  Zr  Zr27  1  0.23173000  0.81696000  0.70914000  1
  Zr  Zr28  1  0.78064000  0.27738000  0.69254000  1
  Zr  Zr29  1  0.76827000  0.31696000  0.79086000  1
  Zr  Zr30  1  0.71936000  0.72262000  0.19254000  1
  Zr  Zr31  1  0.73173000  0.68304000  0.29086000  1
  Zr  Zr32  1  0.72262000  0.19254000  0.71936000  1
  Zr  Zr33  1  0.68304000  0.29086000  0.73173000  1
  Zr  Zr34  1  0.27738000  0.69254000  0.78064000  1
  Zr  Zr35  1  0.31696000  0.79086000  0.76827000  1
  Zr  Zr36  1  0.77738000  0.80746000  0.21936000  1
  Zr  Zr37  1  0.81696000  0.70914000  0.23173000  1
  Zr  Zr38  1  0.22262000  0.30746000  0.28064000  1
  Zr  Zr39  1  0.18304000  0.20914000  0.26827000  1
  Zr  Zr40  1  0.69254000  0.78064000  0.27738000  1
  Zr  Zr41  1  0.79086000  0.76827000  0.31696000  1
  Zr  Zr42  1  0.19254000  0.71936000  0.72262000  1
  Zr  Zr43  1  0.29086000  0.73173000  0.68304000  1
  Zr  Zr44  1  0.30746000  0.28064000  0.22262000  1
  Zr  Zr45  1  0.20914000  0.26827000  0.18304000  1
  Zr  Zr46  1  0.80746000  0.21936000  0.77738000  1
  Zr  Zr47  1  0.70914000  0.23173000  0.81696000  1
  H  H48  1  0.39860000  0.06790000  0.45500000  1
  H  H49  1  0.40080000  0.06070000  0.41410000  1
  H  H50  1  0.01070000  0.35340000  0.62010000  1
  H  H51  1  0.03850000  0.24760000  0.53000000  1
  H  H52  1  0.02400000  0.28730000  0.64290000  1
  H  H53  1  0.02470000  0.31100000  0.50730000  1
  H  H54  1  0.25760000  0.17760000  0.42570000  1
  H  H55  1  0.27810000  0.03100000  0.46680000  1
  H  H56  1  0.08750000  0.21300000  0.56380000  1
  H  H57  1  0.14020000  0.15450000  0.39290000  1
  H  H58  1  0.24440000  0.16080000  0.48930000  1
  H  H59  1  0.21700000  0.06670000  0.47890000  1
  H  H60  1  0.20120000  0.07640000  0.60320000  1
  H  H61  1  0.12820000  0.17590000  0.53390000  1
  H  H62  1  0.12730000  0.13920000  0.46000000  1
  H  H63  1  0.26570000  0.10930000  0.58170000  1
  H  H64  1  0.42580000  0.98080000  0.65200000  1
  H  H65  1  0.33030000  0.08610000  0.55860000  1
  H  H66  1  0.10140000  0.93210000  0.95500000  1
  H  H67  1  0.09920000  0.93930000  0.91410000  1
  H  H68  1  0.48930000  0.64660000  0.12010000  1
  H  H69  1  0.46150000  0.75240000  0.03000000  1
  H  H70  1  0.47600000  0.71270000  0.14290000  1
  H  H71  1  0.47530000  0.68900000  0.00730000  1
  H  H72  1  0.24240000  0.82240000  0.92570000  1
  H  H73  1  0.22190000  0.96900000  0.96680000  1
  H  H74  1  0.41250000  0.78700000  0.06380000  1
  H  H75  1  0.35980000  0.84550000  0.89290000  1
  H  H76  1  0.25560000  0.83920000  0.98930000  1
  H  H77  1  0.28300000  0.93330000  0.97890000  1
  H  H78  1  0.29880000  0.92360000  0.10320000  1
  H  H79  1  0.37180000  0.82410000  0.03390000  1
  H  H80  1  0.37270000  0.86080000  0.96000000  1
  H  H81  1  0.23430000  0.89070000  0.08170000  1
  H  H82  1  0.07420000  0.01920000  0.15200000  1
  H  H83  1  0.16970000  0.91390000  0.05860000  1
  H  H84  1  0.60140000  0.56790000  0.04500000  1
  H  H85  1  0.59920000  0.56070000  0.08590000  1
  H  H86  1  0.98930000  0.85340000  0.87990000  1
  H  H87  1  0.96150000  0.74760000  0.97000000  1
  H  H88  1  0.97600000  0.78730000  0.85710000  1
  H  H89  1  0.97530000  0.81100000  0.99270000  1
  H  H90  1  0.74240000  0.67760000  0.07430000  1
  H  H91  1  0.72190000  0.53100000  0.03320000  1
  H  H92  1  0.91250000  0.71300000  0.93620000  1
  H  H93  1  0.85980000  0.65450000  0.10710000  1
  H  H94  1  0.75560000  0.66080000  0.01070000  1
  H  H95  1  0.78300000  0.56670000  0.02110000  1
  H  H96  1  0.79880000  0.57640000  0.89680000  1
  H  H97  1  0.87180000  0.67590000  0.96610000  1
  H  H98  1  0.87270000  0.63920000  0.04000000  1
  H  H99  1  0.73430000  0.60930000  0.91830000  1
  H  H100  1  0.57420000  0.48080000  0.84800000  1
  H  H101  1  0.66970000  0.58610000  0.94140000  1
  H  H102  1  0.89860000  0.43210000  0.54500000  1
  H  H103  1  0.90080000  0.43930000  0.58590000  1
  H  H104  1  0.51070000  0.14660000  0.37990000  1
  H  H105  1  0.53850000  0.25240000  0.47000000  1
  H  H106  1  0.52400000  0.21270000  0.35710000  1
  H  H107  1  0.52470000  0.18900000  0.49270000  1
  H  H108  1  0.75760000  0.32240000  0.57430000  1
  H  H109  1  0.77810000  0.46900000  0.53320000  1
  H  H110  1  0.58750000  0.28700000  0.43620000  1
  H  H111  1  0.64020000  0.34550000  0.60710000  1
  H  H112  1  0.74440000  0.33920000  0.51070000  1
  H  H113  1  0.71700000  0.43330000  0.52110000  1
  H  H114  1  0.70120000  0.42360000  0.39680000  1
  H  H115  1  0.62820000  0.32410000  0.46610000  1
  H  H116  1  0.62730000  0.36080000  0.54000000  1
  H  H117  1  0.76570000  0.39070000  0.41830000  1
  H  H118  1  0.92580000  0.51920000  0.34800000  1
  H  H119  1  0.83030000  0.41390000  0.44140000  1
  H  H120  1  0.45500000  0.39860000  0.06790000  1
  H  H121  1  0.41410000  0.40080000  0.06070000  1
  H  H122  1  0.62010000  0.01070000  0.35340000  1
  H  H123  1  0.53000000  0.03850000  0.24760000  1
  H  H124  1  0.64290000  0.02400000  0.28730000  1
  H  H125  1  0.50730000  0.02470000  0.31100000  1
  H  H126  1  0.42570000  0.25760000  0.17760000  1
  H  H127  1  0.46680000  0.27810000  0.03100000  1
  H  H128  1  0.56380000  0.08750000  0.21300000  1
  H  H129  1  0.39290000  0.14020000  0.15450000  1
  H  H130  1  0.48930000  0.24440000  0.16080000  1
  H  H131  1  0.47890000  0.21700000  0.06670000  1
  H  H132  1  0.60320000  0.20120000  0.07640000  1
  H  H133  1  0.53390000  0.12820000  0.17590000  1
  H  H134  1  0.46000000  0.12730000  0.13920000  1
  H  H135  1  0.58170000  0.26570000  0.10930000  1
  H  H136  1  0.65200000  0.42580000  0.98080000  1
  H  H137  1  0.55860000  0.33030000  0.08610000  1
  H  H138  1  0.95500000  0.10140000  0.93210000  1
  H  H139  1  0.91410000  0.09920000  0.93930000  1
  H  H140  1  0.12010000  0.48930000  0.64660000  1
  H  H141  1  0.03000000  0.46150000  0.75240000  1
  H  H142  1  0.14290000  0.47600000  0.71270000  1
  H  H143  1  0.00730000  0.47530000  0.68900000  1
  H  H144  1  0.92570000  0.24240000  0.82240000  1
  H  H145  1  0.96680000  0.22190000  0.96900000  1
  H  H146  1  0.06380000  0.41250000  0.78700000  1
  H  H147  1  0.89290000  0.35980000  0.84550000  1
  H  H148  1  0.98930000  0.25560000  0.83920000  1
  H  H149  1  0.97890000  0.28300000  0.93330000  1
  H  H150  1  0.10320000  0.29880000  0.92360000  1
  H  H151  1  0.03390000  0.37180000  0.82410000  1
  H  H152  1  0.96000000  0.37270000  0.86080000  1
  H  H153  1  0.08170000  0.23430000  0.89070000  1
  H  H154  1  0.15200000  0.07420000  0.01920000  1
  H  H155  1  0.05860000  0.16970000  0.91390000  1
  H  H156  1  0.04500000  0.60140000  0.56790000  1
  H  H157  1  0.08590000  0.59920000  0.56070000  1
  H  H158  1  0.87990000  0.98930000  0.85340000  1
  H  H159  1  0.97000000  0.96150000  0.74760000  1
  H  H160  1  0.85710000  0.97600000  0.78730000  1
  H  H161  1  0.99270000  0.97530000  0.81100000  1
  H  H162  1  0.07430000  0.74240000  0.67760000  1
  H  H163  1  0.03320000  0.72190000  0.53100000  1
  H  H164  1  0.93620000  0.91250000  0.71300000  1
  H  H165  1  0.10710000  0.85980000  0.65450000  1
  H  H166  1  0.01070000  0.75560000  0.66080000  1
  H  H167  1  0.02110000  0.78300000  0.56670000  1
  H  H168  1  0.89680000  0.79880000  0.57640000  1
  H  H169  1  0.96610000  0.87180000  0.67590000  1
  H  H170  1  0.04000000  0.87270000  0.63920000  1
  H  H171  1  0.91830000  0.73430000  0.60930000  1
  H  H172  1  0.84800000  0.57420000  0.48080000  1
  H  H173  1  0.94140000  0.66970000  0.58610000  1
  H  H174  1  0.54500000  0.89860000  0.43210000  1
  H  H175  1  0.58590000  0.90080000  0.43930000  1
  H  H176  1  0.37990000  0.51070000  0.14660000  1
  H  H177  1  0.47000000  0.53850000  0.25240000  1
  H  H178  1  0.35710000  0.52400000  0.21270000  1
  H  H179  1  0.49270000  0.52470000  0.18900000  1
  H  H180  1  0.57430000  0.75760000  0.32240000  1
  H  H181  1  0.53320000  0.77810000  0.46900000  1
  H  H182  1  0.43620000  0.58750000  0.28700000  1
  H  H183  1  0.60710000  0.64020000  0.34550000  1
  H  H184  1  0.51070000  0.74440000  0.33920000  1
  H  H185  1  0.52110000  0.71700000  0.43330000  1
  H  H186  1  0.39680000  0.70120000  0.42360000  1
  H  H187  1  0.46610000  0.62820000  0.32410000  1
  H  H188  1  0.54000000  0.62730000  0.36080000  1
  H  H189  1  0.41830000  0.76570000  0.39070000  1
  H  H190  1  0.34800000  0.92580000  0.51920000  1
  H  H191  1  0.44140000  0.83030000  0.41390000  1
  H  H192  1  0.06790000  0.45500000  0.39860000  1
  H  H193  1  0.06070000  0.41410000  0.40080000  1
  H  H194  1  0.35340000  0.62010000  0.01070000  1
  H  H195  1  0.24760000  0.53000000  0.03850000  1
  H  H196  1  0.28730000  0.64290000  0.02400000  1
  H  H197  1  0.31100000  0.50730000  0.02470000  1
  H  H198  1  0.17760000  0.42570000  0.25760000  1
  H  H199  1  0.03100000  0.46680000  0.27810000  1
  H  H200  1  0.21300000  0.56380000  0.08750000  1
  H  H201  1  0.15450000  0.39290000  0.14020000  1
  H  H202  1  0.16080000  0.48930000  0.24440000  1
  H  H203  1  0.06670000  0.47890000  0.21700000  1
  H  H204  1  0.07640000  0.60320000  0.20120000  1
  H  H205  1  0.17590000  0.53390000  0.12820000  1
  H  H206  1  0.13920000  0.46000000  0.12730000  1
  H  H207  1  0.10930000  0.58170000  0.26570000  1
  H  H208  1  0.98080000  0.65200000  0.42580000  1
  H  H209  1  0.08610000  0.55860000  0.33030000  1
  H  H210  1  0.93210000  0.95500000  0.10140000  1
  H  H211  1  0.93930000  0.91410000  0.09920000  1
  H  H212  1  0.64660000  0.12010000  0.48930000  1
  H  H213  1  0.75240000  0.03000000  0.46150000  1
  H  H214  1  0.71270000  0.14290000  0.47600000  1
  H  H215  1  0.68900000  0.00730000  0.47530000  1
  H  H216  1  0.82240000  0.92570000  0.24240000  1
  H  H217  1  0.96900000  0.96680000  0.22190000  1
  H  H218  1  0.78700000  0.06380000  0.41250000  1
  H  H219  1  0.84550000  0.89290000  0.35980000  1
  H  H220  1  0.83920000  0.98930000  0.25560000  1
  H  H221  1  0.93330000  0.97890000  0.28300000  1
  H  H222  1  0.92360000  0.10320000  0.29880000  1
  H  H223  1  0.82410000  0.03390000  0.37180000  1
  H  H224  1  0.86080000  0.96000000  0.37270000  1
  H  H225  1  0.89070000  0.08170000  0.23430000  1
  H  H226  1  0.01920000  0.15200000  0.07420000  1
  H  H227  1  0.91390000  0.05860000  0.16970000  1
  H  H228  1  0.56790000  0.04500000  0.60140000  1
  H  H229  1  0.56070000  0.08590000  0.59920000  1
  H  H230  1  0.85340000  0.87990000  0.98930000  1
  H  H231  1  0.74760000  0.97000000  0.96150000  1
  H  H232  1  0.78730000  0.85710000  0.97600000  1
  H  H233  1  0.81100000  0.99270000  0.97530000  1
  H  H234  1  0.67760000  0.07430000  0.74240000  1
  H  H235  1  0.53100000  0.03320000  0.72190000  1
  H  H236  1  0.71300000  0.93620000  0.91250000  1
  H  H237  1  0.65450000  0.10710000  0.85980000  1
  H  H238  1  0.66080000  0.01070000  0.75560000  1
  H  H239  1  0.56670000  0.02110000  0.78300000  1
  H  H240  1  0.57640000  0.89680000  0.79880000  1
  H  H241  1  0.67590000  0.96610000  0.87180000  1
  H  H242  1  0.63920000  0.04000000  0.87270000  1
  H  H243  1  0.60930000  0.91830000  0.73430000  1
  H  H244  1  0.48080000  0.84800000  0.57420000  1
  H  H245  1  0.58610000  0.94140000  0.66970000  1
  H  H246  1  0.43210000  0.54500000  0.89860000  1
  H  H247  1  0.43930000  0.58590000  0.90080000  1
  H  H248  1  0.14660000  0.37990000  0.51070000  1
  H  H249  1  0.25240000  0.47000000  0.53850000  1
  H  H250  1  0.21270000  0.35710000  0.52400000  1
  H  H251  1  0.18900000  0.49270000  0.52470000  1
  H  H252  1  0.32240000  0.57430000  0.75760000  1
  H  H253  1  0.46900000  0.53320000  0.77810000  1
  H  H254  1  0.28700000  0.43620000  0.58750000  1
  H  H255  1  0.34550000  0.60710000  0.64020000  1
  H  H256  1  0.33920000  0.51070000  0.74440000  1
  H  H257  1  0.43330000  0.52110000  0.71700000  1
  H  H258  1  0.42360000  0.39680000  0.70120000  1
  H  H259  1  0.32410000  0.46610000  0.62820000  1
  H  H260  1  0.36080000  0.54000000  0.62730000  1
  H  H261  1  0.39070000  0.41830000  0.76570000  1
  H  H262  1  0.51920000  0.34800000  0.92580000  1
  H  H263  1  0.41390000  0.44140000  0.83030000  1
  H  H264  1  0.31790000  0.14860000  0.29500000  1
  H  H265  1  0.31070000  0.15080000  0.33590000  1
  H  H266  1  0.60340000  0.76070000  0.12990000  1
  H  H267  1  0.49760000  0.78850000  0.22000000  1
  H  H268  1  0.53730000  0.77400000  0.10710000  1
  H  H269  1  0.56100000  0.77470000  0.24270000  1
  H  H270  1  0.42760000  0.00760000  0.32430000  1
  H  H271  1  0.28100000  0.02810000  0.28320000  1
  H  H272  1  0.46300000  0.83750000  0.18620000  1
  H  H273  1  0.40450000  0.89020000  0.35710000  1
  H  H274  1  0.41080000  0.99440000  0.26070000  1
  H  H275  1  0.31670000  0.96700000  0.27110000  1
  H  H276  1  0.32640000  0.95120000  0.14680000  1
  H  H277  1  0.42590000  0.87820000  0.21610000  1
  H  H278  1  0.38920000  0.87730000  0.29000000  1
  H  H279  1  0.35930000  0.01570000  0.16830000  1
  H  H280  1  0.23080000  0.17580000  0.09800000  1
  H  H281  1  0.33610000  0.08030000  0.19140000  1
  H  H282  1  0.18210000  0.85140000  0.79500000  1
  H  H283  1  0.18930000  0.84920000  0.83590000  1
  H  H284  1  0.89660000  0.23930000  0.62990000  1
  H  H285  1  0.00240000  0.21150000  0.72000000  1
  H  H286  1  0.96270000  0.22600000  0.60710000  1
  H  H287  1  0.93900000  0.22530000  0.74270000  1
  H  H288  1  0.07240000  0.99240000  0.82430000  1
  H  H289  1  0.21900000  0.97190000  0.78320000  1
  H  H290  1  0.03700000  0.16250000  0.68620000  1
  H  H291  1  0.09550000  0.10980000  0.85710000  1
  H  H292  1  0.08920000  0.00560000  0.76070000  1
  H  H293  1  0.18330000  0.03300000  0.77110000  1
  H  H294  1  0.17360000  0.04880000  0.64680000  1
  H  H295  1  0.07410000  0.12180000  0.71610000  1
  H  H296  1  0.11080000  0.12270000  0.79000000  1
  H  H297  1  0.14070000  0.98430000  0.66830000  1
  H  H298  1  0.26920000  0.82420000  0.59800000  1
  H  H299  1  0.16390000  0.91970000  0.69140000  1
  H  H300  1  0.81790000  0.35140000  0.70500000  1
  H  H301  1  0.81070000  0.34920000  0.66410000  1
  H  H302  1  0.10340000  0.73930000  0.87010000  1
  H  H303  1  0.99760000  0.71150000  0.78000000  1
  H  H304  1  0.03730000  0.72600000  0.89290000  1
  H  H305  1  0.06100000  0.72530000  0.75730000  1
  H  H306  1  0.92760000  0.49240000  0.67570000  1
  H  H307  1  0.78100000  0.47190000  0.71680000  1
  H  H308  1  0.96300000  0.66250000  0.81380000  1
  H  H309  1  0.90450000  0.60980000  0.64290000  1
  H  H310  1  0.91080000  0.50560000  0.73930000  1
  H  H311  1  0.81670000  0.53300000  0.72890000  1
  H  H312  1  0.82640000  0.54880000  0.85320000  1
  H  H313  1  0.92590000  0.62180000  0.78390000  1
  H  H314  1  0.88920000  0.62270000  0.71000000  1
  H  H315  1  0.85930000  0.48430000  0.83170000  1
  H  H316  1  0.73080000  0.32420000  0.90200000  1
  H  H317  1  0.83610000  0.41970000  0.80860000  1
  H  H318  1  0.68210000  0.64860000  0.20500000  1
  H  H319  1  0.68930000  0.65080000  0.16410000  1
  H  H320  1  0.39660000  0.26070000  0.37010000  1
  H  H321  1  0.50240000  0.28850000  0.28000000  1
  H  H322  1  0.46270000  0.27400000  0.39290000  1
  H  H323  1  0.43900000  0.27470000  0.25730000  1
  H  H324  1  0.57240000  0.50760000  0.17570000  1
  H  H325  1  0.71900000  0.52810000  0.21680000  1
  H  H326  1  0.53700000  0.33750000  0.31380000  1
  H  H327  1  0.59550000  0.39020000  0.14290000  1
  H  H328  1  0.58920000  0.49440000  0.23930000  1
  H  H329  1  0.68330000  0.46700000  0.22890000  1
  H  H330  1  0.67360000  0.45120000  0.35320000  1
  H  H331  1  0.57410000  0.37820000  0.28390000  1
  H  H332  1  0.61080000  0.37730000  0.21000000  1
  H  H333  1  0.64070000  0.51570000  0.33170000  1
  H  H334  1  0.76920000  0.67580000  0.40200000  1
  H  H335  1  0.66390000  0.58030000  0.30860000  1
  H  H336  1  0.64860000  0.20500000  0.68210000  1
  H  H337  1  0.65080000  0.16410000  0.68930000  1
  H  H338  1  0.26070000  0.37010000  0.39660000  1
  H  H339  1  0.28850000  0.28000000  0.50240000  1
  H  H340  1  0.27400000  0.39290000  0.46270000  1
  H  H341  1  0.27470000  0.25730000  0.43900000  1
  H  H342  1  0.50760000  0.17570000  0.57240000  1
  H  H343  1  0.52810000  0.21680000  0.71900000  1
  H  H344  1  0.33750000  0.31380000  0.53700000  1
  H  H345  1  0.39020000  0.14290000  0.59550000  1
  H  H346  1  0.49440000  0.23930000  0.58920000  1
  H  H347  1  0.46700000  0.22890000  0.68330000  1
  H  H348  1  0.45120000  0.35320000  0.67360000  1
  H  H349  1  0.37820000  0.28390000  0.57410000  1
  H  H350  1  0.37730000  0.21000000  0.61080000  1
  H  H351  1  0.51570000  0.33170000  0.64070000  1
  H  H352  1  0.67580000  0.40200000  0.76920000  1
  H  H353  1  0.58030000  0.30860000  0.66390000  1
  H  H354  1  0.35140000  0.70500000  0.81790000  1
  H  H355  1  0.34920000  0.66410000  0.81070000  1
  H  H356  1  0.73930000  0.87010000  0.10340000  1
  H  H357  1  0.71150000  0.78000000  0.99760000  1
  H  H358  1  0.72600000  0.89290000  0.03730000  1
  H  H359  1  0.72530000  0.75730000  0.06100000  1
  H  H360  1  0.49240000  0.67570000  0.92760000  1
  H  H361  1  0.47190000  0.71680000  0.78100000  1
  H  H362  1  0.66250000  0.81380000  0.96300000  1
  H  H363  1  0.60980000  0.64290000  0.90450000  1
  H  H364  1  0.50560000  0.73930000  0.91080000  1
  H  H365  1  0.53300000  0.72890000  0.81670000  1
  H  H366  1  0.54880000  0.85320000  0.82640000  1
  H  H367  1  0.62180000  0.78390000  0.92590000  1
  H  H368  1  0.62270000  0.71000000  0.88920000  1
  H  H369  1  0.48430000  0.83170000  0.85930000  1
  H  H370  1  0.32420000  0.90200000  0.73080000  1
  H  H371  1  0.41970000  0.80860000  0.83610000  1
  H  H372  1  0.85140000  0.79500000  0.18210000  1
  H  H373  1  0.84920000  0.83590000  0.18930000  1
  H  H374  1  0.23930000  0.62990000  0.89660000  1
  H  H375  1  0.21150000  0.72000000  0.00240000  1
  H  H376  1  0.22600000  0.60710000  0.96270000  1
  H  H377  1  0.22530000  0.74270000  0.93900000  1
  H  H378  1  0.99240000  0.82430000  0.07240000  1
  H  H379  1  0.97190000  0.78320000  0.21900000  1
  H  H380  1  0.16250000  0.68620000  0.03700000  1
  H  H381  1  0.10980000  0.85710000  0.09550000  1
  H  H382  1  0.00560000  0.76070000  0.08920000  1
  H  H383  1  0.03300000  0.77110000  0.18330000  1
  H  H384  1  0.04880000  0.64680000  0.17360000  1
  H  H385  1  0.12180000  0.71610000  0.07410000  1
  H  H386  1  0.12270000  0.79000000  0.11080000  1
  H  H387  1  0.98430000  0.66830000  0.14070000  1
  H  H388  1  0.82420000  0.59800000  0.26920000  1
  H  H389  1  0.91970000  0.69140000  0.16390000  1
  H  H390  1  0.14860000  0.29500000  0.31790000  1
  H  H391  1  0.15080000  0.33590000  0.31070000  1
  H  H392  1  0.76070000  0.12990000  0.60340000  1
  H  H393  1  0.78850000  0.22000000  0.49760000  1
  H  H394  1  0.77400000  0.10710000  0.53730000  1
  H  H395  1  0.77470000  0.24270000  0.56100000  1
  H  H396  1  0.00760000  0.32430000  0.42760000  1
  H  H397  1  0.02810000  0.28320000  0.28100000  1
  H  H398  1  0.83750000  0.18620000  0.46300000  1
  H  H399  1  0.89020000  0.35710000  0.40450000  1
  H  H400  1  0.99440000  0.26070000  0.41080000  1
  H  H401  1  0.96700000  0.27110000  0.31670000  1
  H  H402  1  0.95120000  0.14680000  0.32640000  1
  H  H403  1  0.87820000  0.21610000  0.42590000  1
  H  H404  1  0.87730000  0.29000000  0.38920000  1
  H  H405  1  0.01570000  0.16830000  0.35930000  1
  H  H406  1  0.17580000  0.09800000  0.23080000  1
  H  H407  1  0.08030000  0.19140000  0.33610000  1
  H  H408  1  0.70500000  0.81790000  0.35140000  1
  H  H409  1  0.66410000  0.81070000  0.34920000  1
  H  H410  1  0.87010000  0.10340000  0.73930000  1
  H  H411  1  0.78000000  0.99760000  0.71150000  1
  H  H412  1  0.89290000  0.03730000  0.72600000  1
  H  H413  1  0.75730000  0.06100000  0.72530000  1
  H  H414  1  0.67570000  0.92760000  0.49240000  1
  H  H415  1  0.71680000  0.78100000  0.47190000  1
  H  H416  1  0.81380000  0.96300000  0.66250000  1
  H  H417  1  0.64290000  0.90450000  0.60980000  1
  H  H418  1  0.73930000  0.91080000  0.50560000  1
  H  H419  1  0.72890000  0.81670000  0.53300000  1
  H  H420  1  0.85320000  0.82640000  0.54880000  1
  H  H421  1  0.78390000  0.92590000  0.62180000  1
  H  H422  1  0.71000000  0.88920000  0.62270000  1
  H  H423  1  0.83170000  0.85930000  0.48430000  1
  H  H424  1  0.90200000  0.73080000  0.32420000  1
  H  H425  1  0.80860000  0.83610000  0.41970000  1
  H  H426  1  0.20500000  0.68210000  0.64860000  1
  H  H427  1  0.16410000  0.68930000  0.65080000  1
  H  H428  1  0.37010000  0.39660000  0.26070000  1
  H  H429  1  0.28000000  0.50240000  0.28850000  1
  H  H430  1  0.39290000  0.46270000  0.27400000  1
  H  H431  1  0.25730000  0.43900000  0.27470000  1
  H  H432  1  0.17570000  0.57240000  0.50760000  1
  H  H433  1  0.21680000  0.71900000  0.52810000  1
  H  H434  1  0.31380000  0.53700000  0.33750000  1
  H  H435  1  0.14290000  0.59550000  0.39020000  1
  H  H436  1  0.23930000  0.58920000  0.49440000  1
  H  H437  1  0.22890000  0.68330000  0.46700000  1
  H  H438  1  0.35320000  0.67360000  0.45120000  1
  H  H439  1  0.28390000  0.57410000  0.37820000  1
  H  H440  1  0.21000000  0.61080000  0.37730000  1
  H  H441  1  0.33170000  0.64070000  0.51570000  1
  H  H442  1  0.40200000  0.76920000  0.67580000  1
  H  H443  1  0.30860000  0.66390000  0.58030000  1
  H  H444  1  0.29500000  0.31790000  0.14860000  1
  H  H445  1  0.33590000  0.31070000  0.15080000  1
  H  H446  1  0.12990000  0.60340000  0.76070000  1
  H  H447  1  0.22000000  0.49760000  0.78850000  1
  H  H448  1  0.10710000  0.53730000  0.77400000  1
  H  H449  1  0.24270000  0.56100000  0.77470000  1
  H  H450  1  0.32430000  0.42760000  0.00760000  1
  H  H451  1  0.28320000  0.28100000  0.02810000  1
  H  H452  1  0.18620000  0.46300000  0.83750000  1
  H  H453  1  0.35710000  0.40450000  0.89020000  1
  H  H454  1  0.26070000  0.41080000  0.99440000  1
  H  H455  1  0.27110000  0.31670000  0.96700000  1
  H  H456  1  0.14680000  0.32640000  0.95120000  1
  H  H457  1  0.21610000  0.42590000  0.87820000  1
  H  H458  1  0.29000000  0.38920000  0.87730000  1
  H  H459  1  0.16830000  0.35930000  0.01570000  1
  H  H460  1  0.09800000  0.23080000  0.17580000  1
  H  H461  1  0.19140000  0.33610000  0.08030000  1
  H  H462  1  0.79500000  0.18210000  0.85140000  1
  H  H463  1  0.83590000  0.18930000  0.84920000  1
  H  H464  1  0.62990000  0.89660000  0.23930000  1
  H  H465  1  0.72000000  0.00240000  0.21150000  1
  H  H466  1  0.60710000  0.96270000  0.22600000  1
  H  H467  1  0.74270000  0.93900000  0.22530000  1
  H  H468  1  0.82430000  0.07240000  0.99240000  1
  H  H469  1  0.78320000  0.21900000  0.97190000  1
  H  H470  1  0.68620000  0.03700000  0.16250000  1
  H  H471  1  0.85710000  0.09550000  0.10980000  1
  H  H472  1  0.76070000  0.08920000  0.00560000  1
  H  H473  1  0.77110000  0.18330000  0.03300000  1
  H  H474  1  0.64680000  0.17360000  0.04880000  1
  H  H475  1  0.71610000  0.07410000  0.12180000  1
  H  H476  1  0.79000000  0.11080000  0.12270000  1
  H  H477  1  0.66830000  0.14070000  0.98430000  1
  H  H478  1  0.59800000  0.26920000  0.82420000  1
  H  H479  1  0.69140000  0.16390000  0.91970000  1
  C  C480  1  0.01710000  0.33950000  0.56010000  1
  C  C481  1  0.20010000  0.16890000  0.40080000  1
  C  C482  1  0.00910000  0.37900000  0.54380000  1
  C  C483  1  0.01640000  0.33260000  0.60170000  1
  C  C484  1  0.21030000  0.17800000  0.35880000  1
  C  C485  1  0.03340000  0.26830000  0.54850000  1
  C  C486  1  0.03410000  0.26020000  0.59260000  1
  C  C487  1  0.02510000  0.29180000  0.61500000  1
  C  C488  1  0.02500000  0.30670000  0.53530000  1
  C  C489  1  0.23130000  0.16980000  0.43260000  1
  C  C490  1  0.23510000  0.08880000  0.53310000  1
  C  C491  1  0.27650000  0.04840000  0.48900000  1
  C  C492  1  0.09750000  0.16610000  0.60660000  1
  C  C493  1  0.18380000  0.14870000  0.48300000  1
  C  C494  1  0.07800000  0.20300000  0.58850000  1
  C  C495  1  0.30830000  0.05350000  0.51080000  1
  C  C496  1  0.04650000  0.22210000  0.60780000  1
  C  C497  1  0.16080000  0.15640000  0.41210000  1
  C  C498  1  0.22350000  0.16010000  0.47020000  1
  C  C499  1  0.14770000  0.11330000  0.60580000  1
  C  C500  1  0.23850000  0.06800000  0.49720000  1
  C  C501  1  0.18570000  0.09510000  0.58870000  1
  C  C502  1  0.19710000  0.10860000  0.54740000  1
  C  C503  1  0.17560000  0.13360000  0.52580000  1
  C  C504  1  0.13020000  0.14400000  0.58270000  1
  C  C505  1  0.14150000  0.15460000  0.54690000  1
  C  C506  1  0.15340000  0.14700000  0.45250000  1
  C  C507  1  0.34750000  0.03280000  0.49740000  1
  C  C508  1  0.26810000  0.09510000  0.55730000  1
  C  C509  1  0.43610000  0.98210000  0.62570000  1
  C  C510  1  0.30670000  0.07930000  0.54460000  1
  C  C511  1  0.48290000  0.66050000  0.06010000  1
  C  C512  1  0.29990000  0.83110000  0.90080000  1
  C  C513  1  0.49090000  0.62100000  0.04380000  1
  C  C514  1  0.48360000  0.66740000  0.10170000  1
  C  C515  1  0.28970000  0.82200000  0.85880000  1
  C  C516  1  0.46660000  0.73170000  0.04850000  1
  C  C517  1  0.46590000  0.73980000  0.09260000  1
  C  C518  1  0.47490000  0.70820000  0.11500000  1
  C  C519  1  0.47500000  0.69330000  0.03530000  1
  C  C520  1  0.26870000  0.83020000  0.93260000  1
  C  C521  1  0.26490000  0.91120000  0.03310000  1
  C  C522  1  0.22350000  0.95160000  0.98900000  1
  C  C523  1  0.40250000  0.83390000  0.10660000  1
  C  C524  1  0.31620000  0.85130000  0.98300000  1
  C  C525  1  0.42200000  0.79700000  0.08850000  1
  C  C526  1  0.19170000  0.94650000  0.01080000  1
  C  C527  1  0.45350000  0.77790000  0.10780000  1
  C  C528  1  0.33920000  0.84360000  0.91210000  1
  C  C529  1  0.27650000  0.83990000  0.97020000  1
  C  C530  1  0.35230000  0.88670000  0.10580000  1
  C  C531  1  0.26150000  0.93200000  0.99720000  1
  C  C532  1  0.31430000  0.90490000  0.08870000  1
  C  C533  1  0.30290000  0.89140000  0.04740000  1
  C  C534  1  0.32440000  0.86640000  0.02580000  1
  C  C535  1  0.36980000  0.85600000  0.08270000  1
  C  C536  1  0.35850000  0.84540000  0.04690000  1
  C  C537  1  0.34660000  0.85300000  0.95250000  1
  C  C538  1  0.15250000  0.96720000  0.99740000  1
  C  C539  1  0.23190000  0.90490000  0.05730000  1
  C  C540  1  0.06390000  0.01790000  0.12570000  1
  C  C541  1  0.19330000  0.92070000  0.04460000  1
  C  C542  1  0.98290000  0.83950000  0.93990000  1
  C  C543  1  0.79990000  0.66890000  0.09920000  1
  C  C544  1  0.99090000  0.87900000  0.95620000  1
  C  C545  1  0.98360000  0.83260000  0.89830000  1
  C  C546  1  0.78970000  0.67800000  0.14120000  1
  C  C547  1  0.96660000  0.76830000  0.95150000  1
  C  C548  1  0.96590000  0.76020000  0.90740000  1
  C  C549  1  0.97490000  0.79180000  0.88500000  1
  C  C550  1  0.97500000  0.80670000  0.96470000  1
  C  C551  1  0.76870000  0.66980000  0.06740000  1
  C  C552  1  0.76490000  0.58880000  0.96690000  1
  C  C553  1  0.72350000  0.54840000  0.01100000  1
  C  C554  1  0.90250000  0.66610000  0.89340000  1
  C  C555  1  0.81620000  0.64870000  0.01700000  1
  C  C556  1  0.92200000  0.70300000  0.91150000  1
  C  C557  1  0.69170000  0.55350000  0.98920000  1
  C  C558  1  0.95350000  0.72210000  0.89220000  1
  C  C559  1  0.83920000  0.65640000  0.08790000  1
  C  C560  1  0.77650000  0.66010000  0.02980000  1
  C  C561  1  0.85230000  0.61330000  0.89420000  1
  C  C562  1  0.76150000  0.56800000  0.00280000  1
  C  C563  1  0.81430000  0.59510000  0.91130000  1
  C  C564  1  0.80290000  0.60860000  0.95260000  1
  C  C565  1  0.82440000  0.63360000  0.97420000  1
  C  C566  1  0.86980000  0.64400000  0.91730000  1
  C  C567  1  0.85850000  0.65460000  0.95310000  1
  C  C568  1  0.84660000  0.64700000  0.04750000  1
  C  C569  1  0.65250000  0.53280000  0.00260000  1
  C  C570  1  0.73190000  0.59510000  0.94270000  1
  C  C571  1  0.56390000  0.48210000  0.87430000  1
  C  C572  1  0.69330000  0.57930000  0.95540000  1
  C  C573  1  0.51710000  0.16050000  0.43990000  1
  C  C574  1  0.70010000  0.33110000  0.59920000  1
  C  C575  1  0.50910000  0.12100000  0.45620000  1
  C  C576  1  0.51640000  0.16740000  0.39830000  1
  C  C577  1  0.71030000  0.32200000  0.64120000  1
  C  C578  1  0.53340000  0.23170000  0.45150000  1
  C  C579  1  0.53410000  0.23980000  0.40740000  1
  C  C580  1  0.52510000  0.20820000  0.38500000  1
  C  C581  1  0.52500000  0.19330000  0.46470000  1
  C  C582  1  0.73130000  0.33020000  0.56740000  1
  C  C583  1  0.73510000  0.41120000  0.46690000  1
  C  C584  1  0.77650000  0.45160000  0.51100000  1
  C  C585  1  0.59750000  0.33390000  0.39340000  1
  C  C586  1  0.68380000  0.35130000  0.51700000  1
  C  C587  1  0.57800000  0.29700000  0.41150000  1
  C  C588  1  0.80830000  0.44650000  0.48920000  1
  C  C589  1  0.54650000  0.27790000  0.39220000  1
  C  C590  1  0.66080000  0.34360000  0.58790000  1
  C  C591  1  0.72350000  0.33990000  0.52980000  1
  C  C592  1  0.64770000  0.38670000  0.39420000  1
  C  C593  1  0.73850000  0.43200000  0.50280000  1
  C  C594  1  0.68570000  0.40490000  0.41130000  1
  C  C595  1  0.69710000  0.39140000  0.45260000  1
  C  C596  1  0.67560000  0.36640000  0.47420000  1
  C  C597  1  0.63020000  0.35600000  0.41730000  1
  C  C598  1  0.64150000  0.34540000  0.45310000  1
  C  C599  1  0.65340000  0.35300000  0.54750000  1
  C  C600  1  0.84750000  0.46720000  0.50260000  1
  C  C601  1  0.76810000  0.40490000  0.44270000  1
  C  C602  1  0.93610000  0.51790000  0.37430000  1
  C  C603  1  0.80670000  0.42070000  0.45540000  1
  C  C604  1  0.56010000  0.01710000  0.33950000  1
  C  C605  1  0.40080000  0.20010000  0.16890000  1
  C  C606  1  0.54380000  0.00910000  0.37900000  1
  C  C607  1  0.60170000  0.01640000  0.33260000  1
  C  C608  1  0.35880000  0.21030000  0.17800000  1
  C  C609  1  0.54850000  0.03340000  0.26830000  1
  C  C610  1  0.59260000  0.03410000  0.26020000  1
  C  C611  1  0.61500000  0.02510000  0.29180000  1
  C  C612  1  0.53530000  0.02500000  0.30670000  1
  C  C613  1  0.43260000  0.23130000  0.16980000  1
  C  C614  1  0.53310000  0.23510000  0.08880000  1
  C  C615  1  0.48900000  0.27650000  0.04840000  1
  C  C616  1  0.60660000  0.09750000  0.16610000  1
  C  C617  1  0.48300000  0.18380000  0.14870000  1
  C  C618  1  0.58850000  0.07800000  0.20300000  1
  C  C619  1  0.51080000  0.30830000  0.05350000  1
  C  C620  1  0.60780000  0.04650000  0.22210000  1
  C  C621  1  0.41210000  0.16080000  0.15640000  1
  C  C622  1  0.47020000  0.22350000  0.16010000  1
  C  C623  1  0.60580000  0.14770000  0.11330000  1
  C  C624  1  0.49720000  0.23850000  0.06800000  1
  C  C625  1  0.58870000  0.18570000  0.09510000  1
  C  C626  1  0.54740000  0.19710000  0.10860000  1
  C  C627  1  0.52580000  0.17560000  0.13360000  1
  C  C628  1  0.58270000  0.13020000  0.14400000  1
  C  C629  1  0.54690000  0.14150000  0.15460000  1
  C  C630  1  0.45250000  0.15340000  0.14700000  1
  C  C631  1  0.49740000  0.34750000  0.03280000  1
  C  C632  1  0.55730000  0.26810000  0.09510000  1
  C  C633  1  0.62570000  0.43610000  0.98210000  1
  C  C634  1  0.54460000  0.30670000  0.07930000  1
  C  C635  1  0.06010000  0.48290000  0.66050000  1
  C  C636  1  0.90080000  0.29990000  0.83110000  1
  C  C637  1  0.04380000  0.49090000  0.62100000  1
  C  C638  1  0.10170000  0.48360000  0.66740000  1
  C  C639  1  0.85880000  0.28970000  0.82200000  1
  C  C640  1  0.04850000  0.46660000  0.73170000  1
  C  C641  1  0.09260000  0.46590000  0.73980000  1
  C  C642  1  0.11500000  0.47490000  0.70820000  1
  C  C643  1  0.03530000  0.47500000  0.69330000  1
  C  C644  1  0.93260000  0.26870000  0.83020000  1
  C  C645  1  0.03310000  0.26490000  0.91120000  1
  C  C646  1  0.98900000  0.22350000  0.95160000  1
  C  C647  1  0.10660000  0.40250000  0.83390000  1
  C  C648  1  0.98300000  0.31620000  0.85130000  1
  C  C649  1  0.08850000  0.42200000  0.79700000  1
  C  C650  1  0.01080000  0.19170000  0.94650000  1
  C  C651  1  0.10780000  0.45350000  0.77790000  1
  C  C652  1  0.91210000  0.33920000  0.84360000  1
  C  C653  1  0.97020000  0.27650000  0.83990000  1
  C  C654  1  0.10580000  0.35230000  0.88670000  1
  C  C655  1  0.99720000  0.26150000  0.93200000  1
  C  C656  1  0.08870000  0.31430000  0.90490000  1
  C  C657  1  0.04740000  0.30290000  0.89140000  1
  C  C658  1  0.02580000  0.32440000  0.86640000  1
  C  C659  1  0.08270000  0.36980000  0.85600000  1
  C  C660  1  0.04690000  0.35850000  0.84540000  1
  C  C661  1  0.95250000  0.34660000  0.85300000  1
  C  C662  1  0.99740000  0.15250000  0.96720000  1
  C  C663  1  0.05730000  0.23190000  0.90490000  1
  C  C664  1  0.12570000  0.06390000  0.01790000  1
  C  C665  1  0.04460000  0.19330000  0.92070000  1
  C  C666  1  0.93990000  0.98290000  0.83950000  1
  C  C667  1  0.09920000  0.79990000  0.66890000  1
  C  C668  1  0.95620000  0.99090000  0.87900000  1
  C  C669  1  0.89830000  0.98360000  0.83260000  1
  C  C670  1  0.14120000  0.78970000  0.67800000  1
  C  C671  1  0.95150000  0.96660000  0.76830000  1
  C  C672  1  0.90740000  0.96590000  0.76020000  1
  C  C673  1  0.88500000  0.97490000  0.79180000  1
  C  C674  1  0.96470000  0.97500000  0.80670000  1
  C  C675  1  0.06740000  0.76870000  0.66980000  1
  C  C676  1  0.96690000  0.76490000  0.58880000  1
  C  C677  1  0.01100000  0.72350000  0.54840000  1
  C  C678  1  0.89340000  0.90250000  0.66610000  1
  C  C679  1  0.01700000  0.81620000  0.64870000  1
  C  C680  1  0.91150000  0.92200000  0.70300000  1
  C  C681  1  0.98920000  0.69170000  0.55350000  1
  C  C682  1  0.89220000  0.95350000  0.72210000  1
  C  C683  1  0.08790000  0.83920000  0.65640000  1
  C  C684  1  0.02980000  0.77650000  0.66010000  1
  C  C685  1  0.89420000  0.85230000  0.61330000  1
  C  C686  1  0.00280000  0.76150000  0.56800000  1
  C  C687  1  0.91130000  0.81430000  0.59510000  1
  C  C688  1  0.95260000  0.80290000  0.60860000  1
  C  C689  1  0.97420000  0.82440000  0.63360000  1
  C  C690  1  0.91730000  0.86980000  0.64400000  1
  C  C691  1  0.95310000  0.85850000  0.65460000  1
  C  C692  1  0.04750000  0.84660000  0.64700000  1
  C  C693  1  0.00260000  0.65250000  0.53280000  1
  C  C694  1  0.94270000  0.73190000  0.59510000  1
  C  C695  1  0.87430000  0.56390000  0.48210000  1
  C  C696  1  0.95540000  0.69330000  0.57930000  1
  C  C697  1  0.43990000  0.51710000  0.16050000  1
  C  C698  1  0.59920000  0.70010000  0.33110000  1
  C  C699  1  0.45620000  0.50910000  0.12100000  1
  C  C700  1  0.39830000  0.51640000  0.16740000  1
  C  C701  1  0.64120000  0.71030000  0.32200000  1
  C  C702  1  0.45150000  0.53340000  0.23170000  1
  C  C703  1  0.40740000  0.53410000  0.23980000  1
  C  C704  1  0.38500000  0.52510000  0.20820000  1
  C  C705  1  0.46470000  0.52500000  0.19330000  1
  C  C706  1  0.56740000  0.73130000  0.33020000  1
  C  C707  1  0.46690000  0.73510000  0.41120000  1
  C  C708  1  0.51100000  0.77650000  0.45160000  1
  C  C709  1  0.39340000  0.59750000  0.33390000  1
  C  C710  1  0.51700000  0.68380000  0.35130000  1
  C  C711  1  0.41150000  0.57800000  0.29700000  1
  C  C712  1  0.48920000  0.80830000  0.44650000  1
  C  C713  1  0.39220000  0.54650000  0.27790000  1
  C  C714  1  0.58790000  0.66080000  0.34360000  1
  C  C715  1  0.52980000  0.72350000  0.33990000  1
  C  C716  1  0.39420000  0.64770000  0.38670000  1
  C  C717  1  0.50280000  0.73850000  0.43200000  1
  C  C718  1  0.41130000  0.68570000  0.40490000  1
  C  C719  1  0.45260000  0.69710000  0.39140000  1
  C  C720  1  0.47420000  0.67560000  0.36640000  1
  C  C721  1  0.41730000  0.63020000  0.35600000  1
  C  C722  1  0.45310000  0.64150000  0.34540000  1
  C  C723  1  0.54750000  0.65340000  0.35300000  1
  C  C724  1  0.50260000  0.84750000  0.46720000  1
  C  C725  1  0.44270000  0.76810000  0.40490000  1
  C  C726  1  0.37430000  0.93610000  0.51790000  1
  C  C727  1  0.45540000  0.80670000  0.42070000  1
  C  C728  1  0.33950000  0.56010000  0.01710000  1
  C  C729  1  0.16890000  0.40080000  0.20010000  1
  C  C730  1  0.37900000  0.54380000  0.00910000  1
  C  C731  1  0.33260000  0.60170000  0.01640000  1
  C  C732  1  0.17800000  0.35880000  0.21030000  1
  C  C733  1  0.26830000  0.54850000  0.03340000  1
  C  C734  1  0.26020000  0.59260000  0.03410000  1
  C  C735  1  0.29180000  0.61500000  0.02510000  1
  C  C736  1  0.30670000  0.53530000  0.02500000  1
  C  C737  1  0.16980000  0.43260000  0.23130000  1
  C  C738  1  0.08880000  0.53310000  0.23510000  1
  C  C739  1  0.04840000  0.48900000  0.27650000  1
  C  C740  1  0.16610000  0.60660000  0.09750000  1
  C  C741  1  0.14870000  0.48300000  0.18380000  1
  C  C742  1  0.20300000  0.58850000  0.07800000  1
  C  C743  1  0.05350000  0.51080000  0.30830000  1
  C  C744  1  0.22210000  0.60780000  0.04650000  1
  C  C745  1  0.15640000  0.41210000  0.16080000  1
  C  C746  1  0.16010000  0.47020000  0.22350000  1
  C  C747  1  0.11330000  0.60580000  0.14770000  1
  C  C748  1  0.06800000  0.49720000  0.23850000  1
  C  C749  1  0.09510000  0.58870000  0.18570000  1
  C  C750  1  0.10860000  0.54740000  0.19710000  1
  C  C751  1  0.13360000  0.52580000  0.17560000  1
  C  C752  1  0.14400000  0.58270000  0.13020000  1
  C  C753  1  0.15460000  0.54690000  0.14150000  1
  C  C754  1  0.14700000  0.45250000  0.15340000  1
  C  C755  1  0.03280000  0.49740000  0.34750000  1
  C  C756  1  0.09510000  0.55730000  0.26810000  1
  C  C757  1  0.98210000  0.62570000  0.43610000  1
  C  C758  1  0.07930000  0.54460000  0.30670000  1
  C  C759  1  0.66050000  0.06010000  0.48290000  1
  C  C760  1  0.83110000  0.90080000  0.29990000  1
  C  C761  1  0.62100000  0.04380000  0.49090000  1
  C  C762  1  0.66740000  0.10170000  0.48360000  1
  C  C763  1  0.82200000  0.85880000  0.28970000  1
  C  C764  1  0.73170000  0.04850000  0.46660000  1
  C  C765  1  0.73980000  0.09260000  0.46590000  1
  C  C766  1  0.70820000  0.11500000  0.47490000  1
  C  C767  1  0.69330000  0.03530000  0.47500000  1
  C  C768  1  0.83020000  0.93260000  0.26870000  1
  C  C769  1  0.91120000  0.03310000  0.26490000  1
  C  C770  1  0.95160000  0.98900000  0.22350000  1
  C  C771  1  0.83390000  0.10660000  0.40250000  1
  C  C772  1  0.85130000  0.98300000  0.31620000  1
  C  C773  1  0.79700000  0.08850000  0.42200000  1
  C  C774  1  0.94650000  0.01080000  0.19170000  1
  C  C775  1  0.77790000  0.10780000  0.45350000  1
  C  C776  1  0.84360000  0.91210000  0.33920000  1
  C  C777  1  0.83990000  0.97020000  0.27650000  1
  C  C778  1  0.88670000  0.10580000  0.35230000  1
  C  C779  1  0.93200000  0.99720000  0.26150000  1
  C  C780  1  0.90490000  0.08870000  0.31430000  1
  C  C781  1  0.89140000  0.04740000  0.30290000  1
  C  C782  1  0.86640000  0.02580000  0.32440000  1
  C  C783  1  0.85600000  0.08270000  0.36980000  1
  C  C784  1  0.84540000  0.04690000  0.35850000  1
  C  C785  1  0.85300000  0.95250000  0.34660000  1
  C  C786  1  0.96720000  0.99740000  0.15250000  1
  C  C787  1  0.90490000  0.05730000  0.23190000  1
  C  C788  1  0.01790000  0.12570000  0.06390000  1
  C  C789  1  0.92070000  0.04460000  0.19330000  1
  C  C790  1  0.83950000  0.93990000  0.98290000  1
  C  C791  1  0.66890000  0.09920000  0.79990000  1
  C  C792  1  0.87900000  0.95620000  0.99090000  1
  C  C793  1  0.83260000  0.89830000  0.98360000  1
  C  C794  1  0.67800000  0.14120000  0.78970000  1
  C  C795  1  0.76830000  0.95150000  0.96660000  1
  C  C796  1  0.76020000  0.90740000  0.96590000  1
  C  C797  1  0.79180000  0.88500000  0.97490000  1
  C  C798  1  0.80670000  0.96470000  0.97500000  1
  C  C799  1  0.66980000  0.06740000  0.76870000  1
  C  C800  1  0.58880000  0.96690000  0.76490000  1
  C  C801  1  0.54840000  0.01100000  0.72350000  1
  C  C802  1  0.66610000  0.89340000  0.90250000  1
  C  C803  1  0.64870000  0.01700000  0.81620000  1
  C  C804  1  0.70300000  0.91150000  0.92200000  1
  C  C805  1  0.55350000  0.98920000  0.69170000  1
  C  C806  1  0.72210000  0.89220000  0.95350000  1
  C  C807  1  0.65640000  0.08790000  0.83920000  1
  C  C808  1  0.66010000  0.02980000  0.77650000  1
  C  C809  1  0.61330000  0.89420000  0.85230000  1
  C  C810  1  0.56800000  0.00280000  0.76150000  1
  C  C811  1  0.59510000  0.91130000  0.81430000  1
  C  C812  1  0.60860000  0.95260000  0.80290000  1
  C  C813  1  0.63360000  0.97420000  0.82440000  1
  C  C814  1  0.64400000  0.91730000  0.86980000  1
  C  C815  1  0.65460000  0.95310000  0.85850000  1
  C  C816  1  0.64700000  0.04750000  0.84660000  1
  C  C817  1  0.53280000  0.00260000  0.65250000  1
  C  C818  1  0.59510000  0.94270000  0.73190000  1
  C  C819  1  0.48210000  0.87430000  0.56390000  1
  C  C820  1  0.57930000  0.95540000  0.69330000  1
  C  C821  1  0.16050000  0.43990000  0.51710000  1
  C  C822  1  0.33110000  0.59920000  0.70010000  1
  C  C823  1  0.12100000  0.45620000  0.50910000  1
  C  C824  1  0.16740000  0.39830000  0.51640000  1
  C  C825  1  0.32200000  0.64120000  0.71030000  1
  C  C826  1  0.23170000  0.45150000  0.53340000  1
  C  C827  1  0.23980000  0.40740000  0.53410000  1
  C  C828  1  0.20820000  0.38500000  0.52510000  1
  C  C829  1  0.19330000  0.46470000  0.52500000  1
  C  C830  1  0.33020000  0.56740000  0.73130000  1
  C  C831  1  0.41120000  0.46690000  0.73510000  1
  C  C832  1  0.45160000  0.51100000  0.77650000  1
  C  C833  1  0.33390000  0.39340000  0.59750000  1
  C  C834  1  0.35130000  0.51700000  0.68380000  1
  C  C835  1  0.29700000  0.41150000  0.57800000  1
  C  C836  1  0.44650000  0.48920000  0.80830000  1
  C  C837  1  0.27790000  0.39220000  0.54650000  1
  C  C838  1  0.34360000  0.58790000  0.66080000  1
  C  C839  1  0.33990000  0.52980000  0.72350000  1
  C  C840  1  0.38670000  0.39420000  0.64770000  1
  C  C841  1  0.43200000  0.50280000  0.73850000  1
  C  C842  1  0.40490000  0.41130000  0.68570000  1
  C  C843  1  0.39140000  0.45260000  0.69710000  1
  C  C844  1  0.36640000  0.47420000  0.67560000  1
  C  C845  1  0.35600000  0.41730000  0.63020000  1
  C  C846  1  0.34540000  0.45310000  0.64150000  1
  C  C847  1  0.35300000  0.54750000  0.65340000  1
  C  C848  1  0.46720000  0.50260000  0.84750000  1
  C  C849  1  0.40490000  0.44270000  0.76810000  1
  C  C850  1  0.51790000  0.37430000  0.93610000  1
  C  C851  1  0.42070000  0.45540000  0.80670000  1
  C  C852  1  0.58950000  0.76710000  0.18990000  1
  C  C853  1  0.41890000  0.95010000  0.34920000  1
  C  C854  1  0.62900000  0.75910000  0.20620000  1
  C  C855  1  0.58260000  0.76640000  0.14830000  1
  C  C856  1  0.42800000  0.96030000  0.39120000  1
  C  C857  1  0.51830000  0.78340000  0.20150000  1
  C  C858  1  0.51020000  0.78410000  0.15740000  1
  C  C859  1  0.54180000  0.77510000  0.13500000  1
  C  C860  1  0.55670000  0.77500000  0.21470000  1
  C  C861  1  0.41980000  0.98130000  0.31740000  1
  C  C862  1  0.33880000  0.98510000  0.21690000  1
  C  C863  1  0.29840000  0.02650000  0.26100000  1
  C  C864  1  0.41610000  0.84750000  0.14340000  1
  C  C865  1  0.39870000  0.93380000  0.26700000  1
  C  C866  1  0.45300000  0.82800000  0.16150000  1
  C  C867  1  0.30350000  0.05830000  0.23920000  1
  C  C868  1  0.47210000  0.79650000  0.14220000  1
  C  C869  1  0.40640000  0.91080000  0.33790000  1
  C  C870  1  0.41010000  0.97350000  0.27980000  1
  C  C871  1  0.36330000  0.89770000  0.14420000  1
  C  C872  1  0.31800000  0.98850000  0.25280000  1
  C  C873  1  0.34510000  0.93570000  0.16130000  1
  C  C874  1  0.35860000  0.94710000  0.20260000  1
  C  C875  1  0.38360000  0.92560000  0.22420000  1
  C  C876  1  0.39400000  0.88020000  0.16730000  1
  C  C877  1  0.40460000  0.89150000  0.20310000  1
  C  C878  1  0.39700000  0.90340000  0.29750000  1
  C  C879  1  0.28280000  0.09750000  0.25260000  1
  C  C880  1  0.34510000  0.01810000  0.19270000  1
  C  C881  1  0.23210000  0.18610000  0.12430000  1
  C  C882  1  0.32930000  0.05670000  0.20540000  1
  C  C883  1  0.91050000  0.23290000  0.68990000  1
  C  C884  1  0.08110000  0.04990000  0.84920000  1
  C  C885  1  0.87100000  0.24090000  0.70620000  1
  C  C886  1  0.91740000  0.23360000  0.64830000  1
  C  C887  1  0.07200000  0.03970000  0.89120000  1
  C  C888  1  0.98170000  0.21660000  0.70150000  1
  C  C889  1  0.98980000  0.21590000  0.65740000  1
  C  C890  1  0.95820000  0.22490000  0.63500000  1
  C  C891  1  0.94330000  0.22500000  0.71470000  1
  C  C892  1  0.08020000  0.01870000  0.81740000  1
  C  C893  1  0.16120000  0.01490000  0.71690000  1
  C  C894  1  0.20160000  0.97350000  0.76100000  1
  C  C895  1  0.08390000  0.15250000  0.64340000  1
  C  C896  1  0.10130000  0.06620000  0.76700000  1
  C  C897  1  0.04700000  0.17200000  0.66150000  1
  C  C898  1  0.19650000  0.94170000  0.73920000  1
  C  C899  1  0.02790000  0.20350000  0.64220000  1
  C  C900  1  0.09360000  0.08920000  0.83790000  1
  C  C901  1  0.08990000  0.02650000  0.77980000  1
  C  C902  1  0.13670000  0.10230000  0.64420000  1
  C  C903  1  0.18200000  0.01150000  0.75280000  1
  C  C904  1  0.15490000  0.06430000  0.66130000  1
  C  C905  1  0.14140000  0.05290000  0.70260000  1
  C  C906  1  0.11640000  0.07440000  0.72420000  1
  C  C907  1  0.10600000  0.11980000  0.66730000  1
  C  C908  1  0.09540000  0.10850000  0.70310000  1
  C  C909  1  0.10300000  0.09660000  0.79750000  1
  C  C910  1  0.21720000  0.90250000  0.75260000  1
  C  C911  1  0.15490000  0.98190000  0.69270000  1
  C  C912  1  0.26790000  0.81390000  0.62430000  1
  C  C913  1  0.17070000  0.94330000  0.70540000  1
  C  C914  1  0.08950000  0.73290000  0.81010000  1
  C  C915  1  0.91890000  0.54990000  0.65080000  1
  C  C916  1  0.12900000  0.74090000  0.79380000  1
  C  C917  1  0.08260000  0.73360000  0.85170000  1
  C  C918  1  0.92800000  0.53970000  0.60880000  1
  C  C919  1  0.01830000  0.71660000  0.79850000  1
  C  C920  1  0.01020000  0.71590000  0.84260000  1
  C  C921  1  0.04180000  0.72490000  0.86500000  1
  C  C922  1  0.05670000  0.72500000  0.78530000  1
  C  C923  1  0.91980000  0.51870000  0.68260000  1
  C  C924  1  0.83880000  0.51490000  0.78310000  1
  C  C925  1  0.79840000  0.47350000  0.73900000  1
  C  C926  1  0.91610000  0.65250000  0.85660000  1
  C  C927  1  0.89870000  0.56620000  0.73300000  1
  C  C928  1  0.95300000  0.67200000  0.83850000  1
  C  C929  1  0.80350000  0.44170000  0.76080000  1
  C  C930  1  0.97210000  0.70350000  0.85780000  1
  C  C931  1  0.90640000  0.58920000  0.66210000  1
  C  C932  1  0.91010000  0.52650000  0.72020000  1
  C  C933  1  0.86330000  0.60230000  0.85580000  1
  C  C934  1  0.81800000  0.51150000  0.74720000  1
  C  C935  1  0.84510000  0.56430000  0.83870000  1
  C  C936  1  0.85860000  0.55290000  0.79740000  1
  C  C937  1  0.88360000  0.57440000  0.77580000  1
  C  C938  1  0.89400000  0.61980000  0.83270000  1
  C  C939  1  0.90460000  0.60850000  0.79690000  1
  C  C940  1  0.89700000  0.59660000  0.70250000  1
  C  C941  1  0.78280000  0.40250000  0.74740000  1
  C  C942  1  0.84510000  0.48190000  0.80730000  1
  C  C943  1  0.73210000  0.31390000  0.87570000  1
  C  C944  1  0.82930000  0.44330000  0.79460000  1
  C  C945  1  0.41050000  0.26710000  0.31010000  1
  C  C946  1  0.58110000  0.45010000  0.15080000  1
  C  C947  1  0.37100000  0.25910000  0.29380000  1
  C  C948  1  0.41740000  0.26640000  0.35170000  1
  C  C949  1  0.57200000  0.46030000  0.10880000  1
  C  C950  1  0.48170000  0.28340000  0.29850000  1
  C  C951  1  0.48980000  0.28410000  0.34260000  1
  C  C952  1  0.45820000  0.27510000  0.36500000  1
  C  C953  1  0.44330000  0.27500000  0.28530000  1
  C  C954  1  0.58020000  0.48130000  0.18260000  1
  C  C955  1  0.66120000  0.48510000  0.28310000  1
  C  C956  1  0.70160000  0.52650000  0.23900000  1
  C  C957  1  0.58390000  0.34750000  0.35660000  1
  C  C958  1  0.60130000  0.43380000  0.23300000  1
  C  C959  1  0.54700000  0.32800000  0.33850000  1
  C  C960  1  0.69650000  0.55830000  0.26080000  1
  C  C961  1  0.52790000  0.29650000  0.35780000  1
  C  C962  1  0.59360000  0.41080000  0.16210000  1
  C  C963  1  0.58990000  0.47350000  0.22020000  1
  C  C964  1  0.63670000  0.39770000  0.35580000  1
  C  C965  1  0.68200000  0.48850000  0.24720000  1
  C  C966  1  0.65490000  0.43570000  0.33870000  1
  C  C967  1  0.64140000  0.44710000  0.29740000  1
  C  C968  1  0.61640000  0.42560000  0.27580000  1
  C  C969  1  0.60600000  0.38020000  0.33270000  1
  C  C970  1  0.59540000  0.39150000  0.29690000  1
  C  C971  1  0.60300000  0.40340000  0.20250000  1
  C  C972  1  0.71720000  0.59750000  0.24740000  1
  C  C973  1  0.65490000  0.51810000  0.30730000  1
  C  C974  1  0.76790000  0.68610000  0.37570000  1
  C  C975  1  0.67070000  0.55670000  0.29460000  1
  C  C976  1  0.26710000  0.31010000  0.41050000  1
  C  C977  1  0.45010000  0.15080000  0.58110000  1
  C  C978  1  0.25910000  0.29380000  0.37100000  1
  C  C979  1  0.26640000  0.35170000  0.41740000  1
  C  C980  1  0.46030000  0.10880000  0.57200000  1
  C  C981  1  0.28340000  0.29850000  0.48170000  1
  C  C982  1  0.28410000  0.34260000  0.48980000  1
  C  C983  1  0.27510000  0.36500000  0.45820000  1
  C  C984  1  0.27500000  0.28530000  0.44330000  1
  C  C985  1  0.48130000  0.18260000  0.58020000  1
  C  C986  1  0.48510000  0.28310000  0.66120000  1
  C  C987  1  0.52650000  0.23900000  0.70160000  1
  C  C988  1  0.34750000  0.35660000  0.58390000  1
  C  C989  1  0.43380000  0.23300000  0.60130000  1
  C  C990  1  0.32800000  0.33850000  0.54700000  1
  C  C991  1  0.55830000  0.26080000  0.69650000  1
  C  C992  1  0.29650000  0.35780000  0.52790000  1
  C  C993  1  0.41080000  0.16210000  0.59360000  1
  C  C994  1  0.47350000  0.22020000  0.58990000  1
  C  C995  1  0.39770000  0.35580000  0.63670000  1
  C  C996  1  0.48850000  0.24720000  0.68200000  1
  C  C997  1  0.43570000  0.33870000  0.65490000  1
  C  C998  1  0.44710000  0.29740000  0.64140000  1
  C  C999  1  0.42560000  0.27580000  0.61640000  1
  C  C1000  1  0.38020000  0.33270000  0.60600000  1
  C  C1001  1  0.39150000  0.29690000  0.59540000  1
  C  C1002  1  0.40340000  0.20250000  0.60300000  1
  C  C1003  1  0.59750000  0.24740000  0.71720000  1
  C  C1004  1  0.51810000  0.30730000  0.65490000  1
  C  C1005  1  0.68610000  0.37570000  0.76790000  1
  C  C1006  1  0.55670000  0.29460000  0.67070000  1
  C  C1007  1  0.73290000  0.81010000  0.08950000  1
  C  C1008  1  0.54990000  0.65080000  0.91890000  1
  C  C1009  1  0.74090000  0.79380000  0.12900000  1
  C  C1010  1  0.73360000  0.85170000  0.08260000  1
  C  C1011  1  0.53970000  0.60880000  0.92800000  1
  C  C1012  1  0.71660000  0.79850000  0.01830000  1
  C  C1013  1  0.71590000  0.84260000  0.01020000  1
  C  C1014  1  0.72490000  0.86500000  0.04180000  1
  C  C1015  1  0.72500000  0.78530000  0.05670000  1
  C  C1016  1  0.51870000  0.68260000  0.91980000  1
  C  C1017  1  0.51490000  0.78310000  0.83880000  1
  C  C1018  1  0.47350000  0.73900000  0.79840000  1
  C  C1019  1  0.65250000  0.85660000  0.91610000  1
  C  C1020  1  0.56620000  0.73300000  0.89870000  1
  C  C1021  1  0.67200000  0.83850000  0.95300000  1
  C  C1022  1  0.44170000  0.76080000  0.80350000  1
  C  C1023  1  0.70350000  0.85780000  0.97210000  1
  C  C1024  1  0.58920000  0.66210000  0.90640000  1
  C  C1025  1  0.52650000  0.72020000  0.91010000  1
  C  C1026  1  0.60230000  0.85580000  0.86330000  1
  C  C1027  1  0.51150000  0.74720000  0.81800000  1
  C  C1028  1  0.56430000  0.83870000  0.84510000  1
  C  C1029  1  0.55290000  0.79740000  0.85860000  1
  C  C1030  1  0.57440000  0.77580000  0.88360000  1
  C  C1031  1  0.61980000  0.83270000  0.89400000  1
  C  C1032  1  0.60850000  0.79690000  0.90460000  1
  C  C1033  1  0.59660000  0.70250000  0.89700000  1
  C  C1034  1  0.40250000  0.74740000  0.78280000  1
  C  C1035  1  0.48190000  0.80730000  0.84510000  1
  C  C1036  1  0.31390000  0.87570000  0.73210000  1
  C  C1037  1  0.44330000  0.79460000  0.82930000  1
  C  C1038  1  0.23290000  0.68990000  0.91050000  1
  C  C1039  1  0.04990000  0.84920000  0.08110000  1
  C  C1040  1  0.24090000  0.70620000  0.87100000  1
  C  C1041  1  0.23360000  0.64830000  0.91740000  1
  C  C1042  1  0.03970000  0.89120000  0.07200000  1
  C  C1043  1  0.21660000  0.70150000  0.98170000  1
  C  C1044  1  0.21590000  0.65740000  0.98980000  1
  C  C1045  1  0.22490000  0.63500000  0.95820000  1
  C  C1046  1  0.22500000  0.71470000  0.94330000  1
  C  C1047  1  0.01870000  0.81740000  0.08020000  1
  C  C1048  1  0.01490000  0.71690000  0.16120000  1
  C  C1049  1  0.97350000  0.76100000  0.20160000  1
  C  C1050  1  0.15250000  0.64340000  0.08390000  1
  C  C1051  1  0.06620000  0.76700000  0.10130000  1
  C  C1052  1  0.17200000  0.66150000  0.04700000  1
  C  C1053  1  0.94170000  0.73920000  0.19650000  1
  C  C1054  1  0.20350000  0.64220000  0.02790000  1
  C  C1055  1  0.08920000  0.83790000  0.09360000  1
  C  C1056  1  0.02650000  0.77980000  0.08990000  1
  C  C1057  1  0.10230000  0.64420000  0.13670000  1
  C  C1058  1  0.01150000  0.75280000  0.18200000  1
  C  C1059  1  0.06430000  0.66130000  0.15490000  1
  C  C1060  1  0.05290000  0.70260000  0.14140000  1
  C  C1061  1  0.07440000  0.72420000  0.11640000  1
  C  C1062  1  0.11980000  0.66730000  0.10600000  1
  C  C1063  1  0.10850000  0.70310000  0.09540000  1
  C  C1064  1  0.09660000  0.79750000  0.10300000  1
  C  C1065  1  0.90250000  0.75260000  0.21720000  1
  C  C1066  1  0.98190000  0.69270000  0.15490000  1
  C  C1067  1  0.81390000  0.62430000  0.26790000  1
  C  C1068  1  0.94330000  0.70540000  0.17070000  1
  C  C1069  1  0.76710000  0.18990000  0.58950000  1
  C  C1070  1  0.95010000  0.34920000  0.41890000  1
  C  C1071  1  0.75910000  0.20620000  0.62900000  1
  C  C1072  1  0.76640000  0.14830000  0.58260000  1
  C  C1073  1  0.96030000  0.39120000  0.42800000  1
  C  C1074  1  0.78340000  0.20150000  0.51830000  1
  C  C1075  1  0.78410000  0.15740000  0.51020000  1
  C  C1076  1  0.77510000  0.13500000  0.54180000  1
  C  C1077  1  0.77500000  0.21470000  0.55670000  1
  C  C1078  1  0.98130000  0.31740000  0.41980000  1
  C  C1079  1  0.98510000  0.21690000  0.33880000  1
  C  C1080  1  0.02650000  0.26100000  0.29840000  1
  C  C1081  1  0.84750000  0.14340000  0.41610000  1
  C  C1082  1  0.93380000  0.26700000  0.39870000  1
  C  C1083  1  0.82800000  0.16150000  0.45300000  1
  C  C1084  1  0.05830000  0.23920000  0.30350000  1
  C  C1085  1  0.79650000  0.14220000  0.47210000  1
  C  C1086  1  0.91080000  0.33790000  0.40640000  1
  C  C1087  1  0.97350000  0.27980000  0.41010000  1
  C  C1088  1  0.89770000  0.14420000  0.36330000  1
  C  C1089  1  0.98850000  0.25280000  0.31800000  1
  C  C1090  1  0.93570000  0.16130000  0.34510000  1
  C  C1091  1  0.94710000  0.20260000  0.35860000  1
  C  C1092  1  0.92560000  0.22420000  0.38360000  1
  C  C1093  1  0.88020000  0.16730000  0.39400000  1
  C  C1094  1  0.89150000  0.20310000  0.40460000  1
  C  C1095  1  0.90340000  0.29750000  0.39700000  1
  C  C1096  1  0.09750000  0.25260000  0.28280000  1
  C  C1097  1  0.01810000  0.19270000  0.34510000  1
  C  C1098  1  0.18610000  0.12430000  0.23210000  1
  C  C1099  1  0.05670000  0.20540000  0.32930000  1
  C  C1100  1  0.81010000  0.08950000  0.73290000  1
  C  C1101  1  0.65080000  0.91890000  0.54990000  1
  C  C1102  1  0.79380000  0.12900000  0.74090000  1
  C  C1103  1  0.85170000  0.08260000  0.73360000  1
  C  C1104  1  0.60880000  0.92800000  0.53970000  1
  C  C1105  1  0.79850000  0.01830000  0.71660000  1
  C  C1106  1  0.84260000  0.01020000  0.71590000  1
  C  C1107  1  0.86500000  0.04180000  0.72490000  1
  C  C1108  1  0.78530000  0.05670000  0.72500000  1
  C  C1109  1  0.68260000  0.91980000  0.51870000  1
  C  C1110  1  0.78310000  0.83880000  0.51490000  1
  C  C1111  1  0.73900000  0.79840000  0.47350000  1
  C  C1112  1  0.85660000  0.91610000  0.65250000  1
  C  C1113  1  0.73300000  0.89870000  0.56620000  1
  C  C1114  1  0.83850000  0.95300000  0.67200000  1
  C  C1115  1  0.76080000  0.80350000  0.44170000  1
  C  C1116  1  0.85780000  0.97210000  0.70350000  1
  C  C1117  1  0.66210000  0.90640000  0.58920000  1
  C  C1118  1  0.72020000  0.91010000  0.52650000  1
  C  C1119  1  0.85580000  0.86330000  0.60230000  1
  C  C1120  1  0.74720000  0.81800000  0.51150000  1
  C  C1121  1  0.83870000  0.84510000  0.56430000  1
  C  C1122  1  0.79740000  0.85860000  0.55290000  1
  C  C1123  1  0.77580000  0.88360000  0.57440000  1
  C  C1124  1  0.83270000  0.89400000  0.61980000  1
  C  C1125  1  0.79690000  0.90460000  0.60850000  1
  C  C1126  1  0.70250000  0.89700000  0.59660000  1
  C  C1127  1  0.74740000  0.78280000  0.40250000  1
  C  C1128  1  0.80730000  0.84510000  0.48190000  1
  C  C1129  1  0.87570000  0.73210000  0.31390000  1
  C  C1130  1  0.79460000  0.82930000  0.44330000  1
  C  C1131  1  0.31010000  0.41050000  0.26710000  1
  C  C1132  1  0.15080000  0.58110000  0.45010000  1
  C  C1133  1  0.29380000  0.37100000  0.25910000  1
  C  C1134  1  0.35170000  0.41740000  0.26640000  1
  C  C1135  1  0.10880000  0.57200000  0.46030000  1
  C  C1136  1  0.29850000  0.48170000  0.28340000  1
  C  C1137  1  0.34260000  0.48980000  0.28410000  1
  C  C1138  1  0.36500000  0.45820000  0.27510000  1
  C  C1139  1  0.28530000  0.44330000  0.27500000  1
  C  C1140  1  0.18260000  0.58020000  0.48130000  1
  C  C1141  1  0.28310000  0.66120000  0.48510000  1
  C  C1142  1  0.23900000  0.70160000  0.52650000  1
  C  C1143  1  0.35660000  0.58390000  0.34750000  1
  C  C1144  1  0.23300000  0.60130000  0.43380000  1
  C  C1145  1  0.33850000  0.54700000  0.32800000  1
  C  C1146  1  0.26080000  0.69650000  0.55830000  1
  C  C1147  1  0.35780000  0.52790000  0.29650000  1
  C  C1148  1  0.16210000  0.59360000  0.41080000  1
  C  C1149  1  0.22020000  0.58990000  0.47350000  1
  C  C1150  1  0.35580000  0.63670000  0.39770000  1
  C  C1151  1  0.24720000  0.68200000  0.48850000  1
  C  C1152  1  0.33870000  0.65490000  0.43570000  1
  C  C1153  1  0.29740000  0.64140000  0.44710000  1
  C  C1154  1  0.27580000  0.61640000  0.42560000  1
  C  C1155  1  0.33270000  0.60600000  0.38020000  1
  C  C1156  1  0.29690000  0.59540000  0.39150000  1
  C  C1157  1  0.20250000  0.60300000  0.40340000  1
  C  C1158  1  0.24740000  0.71720000  0.59750000  1
  C  C1159  1  0.30730000  0.65490000  0.51810000  1
  C  C1160  1  0.37570000  0.76790000  0.68610000  1
  C  C1161  1  0.29460000  0.67070000  0.55670000  1
  C  C1162  1  0.18990000  0.58950000  0.76710000  1
  C  C1163  1  0.34920000  0.41890000  0.95010000  1
  C  C1164  1  0.20620000  0.62900000  0.75910000  1
  C  C1165  1  0.14830000  0.58260000  0.76640000  1
  C  C1166  1  0.39120000  0.42800000  0.96030000  1
  C  C1167  1  0.20150000  0.51830000  0.78340000  1
  C  C1168  1  0.15740000  0.51020000  0.78410000  1
  C  C1169  1  0.13500000  0.54180000  0.77510000  1
  C  C1170  1  0.21470000  0.55670000  0.77500000  1
  C  C1171  1  0.31740000  0.41980000  0.98130000  1
  C  C1172  1  0.21690000  0.33880000  0.98510000  1
  C  C1173  1  0.26100000  0.29840000  0.02650000  1
  C  C1174  1  0.14340000  0.41610000  0.84750000  1
  C  C1175  1  0.26700000  0.39870000  0.93380000  1
  C  C1176  1  0.16150000  0.45300000  0.82800000  1
  C  C1177  1  0.23920000  0.30350000  0.05830000  1
  C  C1178  1  0.14220000  0.47210000  0.79650000  1
  C  C1179  1  0.33790000  0.40640000  0.91080000  1
  C  C1180  1  0.27980000  0.41010000  0.97350000  1
  C  C1181  1  0.14420000  0.36330000  0.89770000  1
  C  C1182  1  0.25280000  0.31800000  0.98850000  1
  C  C1183  1  0.16130000  0.34510000  0.93570000  1
  C  C1184  1  0.20260000  0.35860000  0.94710000  1
  C  C1185  1  0.22420000  0.38360000  0.92560000  1
  C  C1186  1  0.16730000  0.39400000  0.88020000  1
  C  C1187  1  0.20310000  0.40460000  0.89150000  1
  C  C1188  1  0.29750000  0.39700000  0.90340000  1
  C  C1189  1  0.25260000  0.28280000  0.09750000  1
  C  C1190  1  0.19270000  0.34510000  0.01810000  1
  C  C1191  1  0.12430000  0.23210000  0.18610000  1
  C  C1192  1  0.20540000  0.32930000  0.05670000  1
  C  C1193  1  0.68990000  0.91050000  0.23290000  1
  C  C1194  1  0.84920000  0.08110000  0.04990000  1
  C  C1195  1  0.70620000  0.87100000  0.24090000  1
  C  C1196  1  0.64830000  0.91740000  0.23360000  1
  C  C1197  1  0.89120000  0.07200000  0.03970000  1
  C  C1198  1  0.70150000  0.98170000  0.21660000  1
  C  C1199  1  0.65740000  0.98980000  0.21590000  1
  C  C1200  1  0.63500000  0.95820000  0.22490000  1
  C  C1201  1  0.71470000  0.94330000  0.22500000  1
  C  C1202  1  0.81740000  0.08020000  0.01870000  1
  C  C1203  1  0.71690000  0.16120000  0.01490000  1
  C  C1204  1  0.76100000  0.20160000  0.97350000  1
  C  C1205  1  0.64340000  0.08390000  0.15250000  1
  C  C1206  1  0.76700000  0.10130000  0.06620000  1
  C  C1207  1  0.66150000  0.04700000  0.17200000  1
  C  C1208  1  0.73920000  0.19650000  0.94170000  1
  C  C1209  1  0.64220000  0.02790000  0.20350000  1
  C  C1210  1  0.83790000  0.09360000  0.08920000  1
  C  C1211  1  0.77980000  0.08990000  0.02650000  1
  C  C1212  1  0.64420000  0.13670000  0.10230000  1
  C  C1213  1  0.75280000  0.18200000  0.01150000  1
  C  C1214  1  0.66130000  0.15490000  0.06430000  1
  C  C1215  1  0.70260000  0.14140000  0.05290000  1
  C  C1216  1  0.72420000  0.11640000  0.07440000  1
  C  C1217  1  0.66730000  0.10600000  0.11980000  1
  C  C1218  1  0.70310000  0.09540000  0.10850000  1
  C  C1219  1  0.79750000  0.10300000  0.09660000  1
  C  C1220  1  0.75260000  0.21720000  0.90250000  1
  C  C1221  1  0.69270000  0.15490000  0.98190000  1
  C  C1222  1  0.62430000  0.26790000  0.81390000  1
  C  C1223  1  0.70540000  0.17070000  0.94330000  1
  O  O1224  1  0.47282000  0.04673000  0.50339000  1
  O  O1225  1  0.42567000  0.99503000  0.47792000  1
  O  O1226  1  0.18384000  0.18086000  0.33154000  1
  O  O1227  1  0.24918000  0.18644000  0.35339000  1
  O  O1228  1  0.99110000  0.40556000  0.56682000  1
  O  O1229  1  0.02752000  0.38724000  0.51116000  1
  O  O1230  1  0.41522000  0.07006000  0.43430000  1
  O  O1231  1  0.41890000  0.00440000  0.60530000  1
  O  O1232  1  0.37880000  0.04650000  0.52120000  1
  O  O1233  1  0.34930000  0.00720000  0.47170000  1
  O  O1234  1  0.46970000  0.95600000  0.61940000  1
  O  O1235  1  0.16460000  0.26610000  0.54560000  1
  O  O1236  1  0.18420000  0.26140000  0.59060000  1
  O  O1237  1  0.02718000  0.95327000  0.00339000  1
  O  O1238  1  0.07433000  0.00497000  0.97792000  1
  O  O1239  1  0.31616000  0.81914000  0.83154000  1
  O  O1240  1  0.25082000  0.81356000  0.85339000  1
  O  O1241  1  0.50890000  0.59444000  0.06682000  1
  O  O1242  1  0.47248000  0.61276000  0.01116000  1
  O  O1243  1  0.08478000  0.92994000  0.93430000  1
  O  O1244  1  0.08110000  0.99560000  0.10530000  1
  O  O1245  1  0.12120000  0.95350000  0.02120000  1
  O  O1246  1  0.15070000  0.99280000  0.97170000  1
  O  O1247  1  0.03030000  0.04400000  0.11940000  1
  O  O1248  1  0.33540000  0.73390000  0.04560000  1
  O  O1249  1  0.31580000  0.73860000  0.09060000  1
  O  O1250  1  0.52718000  0.54673000  0.99661000  1
  O  O1251  1  0.57433000  0.49503000  0.02208000  1
  O  O1252  1  0.81616000  0.68086000  0.16846000  1
  O  O1253  1  0.75082000  0.68644000  0.14661000  1
  O  O1254  1  0.00890000  0.90556000  0.93318000  1
  O  O1255  1  0.97248000  0.88724000  0.98884000  1
  O  O1256  1  0.58478000  0.57006000  0.06570000  1
  O  O1257  1  0.58110000  0.50440000  0.89470000  1
  O  O1258  1  0.62120000  0.54650000  0.97880000  1
  O  O1259  1  0.65070000  0.50720000  0.02830000  1
  O  O1260  1  0.53030000  0.45600000  0.88060000  1
  O  O1261  1  0.83540000  0.76610000  0.95440000  1
  O  O1262  1  0.81580000  0.76140000  0.90940000  1
  O  O1263  1  0.97282000  0.45327000  0.49661000  1
  O  O1264  1  0.92567000  0.50497000  0.52208000  1
  O  O1265  1  0.68384000  0.31914000  0.66846000  1
  O  O1266  1  0.74918000  0.31356000  0.64661000  1
  O  O1267  1  0.49110000  0.09444000  0.43318000  1
  O  O1268  1  0.52752000  0.11276000  0.48884000  1
  O  O1269  1  0.91522000  0.42994000  0.56570000  1
  O  O1270  1  0.91890000  0.49560000  0.39470000  1
  O  O1271  1  0.87880000  0.45350000  0.47880000  1
  O  O1272  1  0.84930000  0.49280000  0.52830000  1
  O  O1273  1  0.96970000  0.54400000  0.38060000  1
  O  O1274  1  0.66460000  0.23390000  0.45440000  1
  O  O1275  1  0.68420000  0.23860000  0.40940000  1
  O  O1276  1  0.50339000  0.47282000  0.04673000  1
  O  O1277  1  0.47792000  0.42567000  0.99503000  1
  O  O1278  1  0.33154000  0.18384000  0.18086000  1
  O  O1279  1  0.35339000  0.24918000  0.18644000  1
  O  O1280  1  0.56682000  0.99110000  0.40556000  1
  O  O1281  1  0.51116000  0.02752000  0.38724000  1
  O  O1282  1  0.43430000  0.41522000  0.07006000  1
  O  O1283  1  0.60530000  0.41890000  0.00440000  1
  O  O1284  1  0.52120000  0.37880000  0.04650000  1
  O  O1285  1  0.47170000  0.34930000  0.00720000  1
  O  O1286  1  0.61940000  0.46970000  0.95600000  1
  O  O1287  1  0.54560000  0.16460000  0.26610000  1
  O  O1288  1  0.59060000  0.18420000  0.26140000  1
  O  O1289  1  0.00339000  0.02718000  0.95327000  1
  O  O1290  1  0.97792000  0.07433000  0.00497000  1
  O  O1291  1  0.83154000  0.31616000  0.81914000  1
  O  O1292  1  0.85339000  0.25082000  0.81356000  1
  O  O1293  1  0.06682000  0.50890000  0.59444000  1
  O  O1294  1  0.01116000  0.47248000  0.61276000  1
  O  O1295  1  0.93430000  0.08478000  0.92994000  1
  O  O1296  1  0.10530000  0.08110000  0.99560000  1
  O  O1297  1  0.02120000  0.12120000  0.95350000  1
  O  O1298  1  0.97170000  0.15070000  0.99280000  1
  O  O1299  1  0.11940000  0.03030000  0.04400000  1
  O  O1300  1  0.04560000  0.33540000  0.73390000  1
  O  O1301  1  0.09060000  0.31580000  0.73860000  1
  O  O1302  1  0.99661000  0.52718000  0.54673000  1
  O  O1303  1  0.02208000  0.57433000  0.49503000  1
  O  O1304  1  0.16846000  0.81616000  0.68086000  1
  O  O1305  1  0.14661000  0.75082000  0.68644000  1
  O  O1306  1  0.93318000  0.00890000  0.90556000  1
  O  O1307  1  0.98884000  0.97248000  0.88724000  1
  O  O1308  1  0.06570000  0.58478000  0.57006000  1
  O  O1309  1  0.89470000  0.58110000  0.50440000  1
  O  O1310  1  0.97880000  0.62120000  0.54650000  1
  O  O1311  1  0.02830000  0.65070000  0.50720000  1
  O  O1312  1  0.88060000  0.53030000  0.45600000  1
  O  O1313  1  0.95440000  0.83540000  0.76610000  1
  O  O1314  1  0.90940000  0.81580000  0.76140000  1
  O  O1315  1  0.49661000  0.97282000  0.45327000  1
  O  O1316  1  0.52208000  0.92567000  0.50497000  1
  O  O1317  1  0.66846000  0.68384000  0.31914000  1
  O  O1318  1  0.64661000  0.74918000  0.31356000  1
  O  O1319  1  0.43318000  0.49110000  0.09444000  1
  O  O1320  1  0.48884000  0.52752000  0.11276000  1
  O  O1321  1  0.56570000  0.91522000  0.42994000  1
  O  O1322  1  0.39470000  0.91890000  0.49560000  1
  O  O1323  1  0.47880000  0.87880000  0.45350000  1
  O  O1324  1  0.52830000  0.84930000  0.49280000  1
  O  O1325  1  0.38060000  0.96970000  0.54400000  1
  O  O1326  1  0.45440000  0.66460000  0.23390000  1
  O  O1327  1  0.40940000  0.68420000  0.23860000  1
  O  O1328  1  0.04673000  0.50339000  0.47282000  1
  O  O1329  1  0.99503000  0.47792000  0.42567000  1
  O  O1330  1  0.18086000  0.33154000  0.18384000  1
  O  O1331  1  0.18644000  0.35339000  0.24918000  1
  O  O1332  1  0.40556000  0.56682000  0.99110000  1
  O  O1333  1  0.38724000  0.51116000  0.02752000  1
  O  O1334  1  0.07006000  0.43430000  0.41522000  1
  O  O1335  1  0.00440000  0.60530000  0.41890000  1
  O  O1336  1  0.04650000  0.52120000  0.37880000  1
  O  O1337  1  0.00720000  0.47170000  0.34930000  1
  O  O1338  1  0.95600000  0.61940000  0.46970000  1
  O  O1339  1  0.26610000  0.54560000  0.16460000  1
  O  O1340  1  0.26140000  0.59060000  0.18420000  1
  O  O1341  1  0.95327000  0.00339000  0.02718000  1
  O  O1342  1  0.00497000  0.97792000  0.07433000  1
  O  O1343  1  0.81914000  0.83154000  0.31616000  1
  O  O1344  1  0.81356000  0.85339000  0.25082000  1
  O  O1345  1  0.59444000  0.06682000  0.50890000  1
  O  O1346  1  0.61276000  0.01116000  0.47248000  1
  O  O1347  1  0.92994000  0.93430000  0.08478000  1
  O  O1348  1  0.99560000  0.10530000  0.08110000  1
  O  O1349  1  0.95350000  0.02120000  0.12120000  1
  O  O1350  1  0.99280000  0.97170000  0.15070000  1
  O  O1351  1  0.04400000  0.11940000  0.03030000  1
  O  O1352  1  0.73390000  0.04560000  0.33540000  1
  O  O1353  1  0.73860000  0.09060000  0.31580000  1
  O  O1354  1  0.54673000  0.99661000  0.52718000  1
  O  O1355  1  0.49503000  0.02208000  0.57433000  1
  O  O1356  1  0.68086000  0.16846000  0.81616000  1
  O  O1357  1  0.68644000  0.14661000  0.75082000  1
  O  O1358  1  0.90556000  0.93318000  0.00890000  1
  O  O1359  1  0.88724000  0.98884000  0.97248000  1
  O  O1360  1  0.57006000  0.06570000  0.58478000  1
  O  O1361  1  0.50440000  0.89470000  0.58110000  1
  O  O1362  1  0.54650000  0.97880000  0.62120000  1
  O  O1363  1  0.50720000  0.02830000  0.65070000  1
  O  O1364  1  0.45600000  0.88060000  0.53030000  1
  O  O1365  1  0.76610000  0.95440000  0.83540000  1
  O  O1366  1  0.76140000  0.90940000  0.81580000  1
  O  O1367  1  0.45327000  0.49661000  0.97282000  1
  O  O1368  1  0.50497000  0.52208000  0.92567000  1
  O  O1369  1  0.31914000  0.66846000  0.68384000  1
  O  O1370  1  0.31356000  0.64661000  0.74918000  1
  O  O1371  1  0.09444000  0.43318000  0.49110000  1
  O  O1372  1  0.11276000  0.48884000  0.52752000  1
  O  O1373  1  0.42994000  0.56570000  0.91522000  1
  O  O1374  1  0.49560000  0.39470000  0.91890000  1
  O  O1375  1  0.45350000  0.47880000  0.87880000  1
  O  O1376  1  0.49280000  0.52830000  0.84930000  1
  O  O1377  1  0.54400000  0.38060000  0.96970000  1
  O  O1378  1  0.23390000  0.45440000  0.66460000  1
  O  O1379  1  0.23860000  0.40940000  0.68420000  1
  O  O1380  1  0.29673000  0.22282000  0.24661000  1
  O  O1381  1  0.24503000  0.17567000  0.27208000  1
  O  O1382  1  0.43086000  0.93384000  0.41846000  1
  O  O1383  1  0.43644000  0.99918000  0.39661000  1
  O  O1384  1  0.65556000  0.74110000  0.18318000  1
  O  O1385  1  0.63724000  0.77752000  0.23884000  1
  O  O1386  1  0.32006000  0.16522000  0.31570000  1
  O  O1387  1  0.25440000  0.16890000  0.14470000  1
  O  O1388  1  0.29650000  0.12880000  0.22880000  1
  O  O1389  1  0.25720000  0.09930000  0.27830000  1
  O  O1390  1  0.20600000  0.21970000  0.13060000  1
  O  O1391  1  0.51610000  0.91460000  0.20440000  1
  O  O1392  1  0.51140000  0.93420000  0.15940000  1
  O  O1393  1  0.20327000  0.77718000  0.74661000  1
  O  O1394  1  0.25497000  0.82433000  0.77208000  1
  O  O1395  1  0.06914000  0.06616000  0.91846000  1
  O  O1396  1  0.06356000  0.00082000  0.89661000  1
  O  O1397  1  0.84444000  0.25890000  0.68318000  1
  O  O1398  1  0.86276000  0.22248000  0.73884000  1
  O  O1399  1  0.17994000  0.83478000  0.81570000  1
  O  O1400  1  0.24560000  0.83110000  0.64470000  1
  O  O1401  1  0.20350000  0.87120000  0.72880000  1
  O  O1402  1  0.24280000  0.90070000  0.77830000  1
  O  O1403  1  0.29400000  0.78030000  0.63060000  1
  O  O1404  1  0.98390000  0.08540000  0.70440000  1
  O  O1405  1  0.98860000  0.06580000  0.65940000  1
  O  O1406  1  0.79673000  0.27718000  0.75339000  1
  O  O1407  1  0.74503000  0.32433000  0.72792000  1
  O  O1408  1  0.93086000  0.56616000  0.58154000  1
  O  O1409  1  0.93644000  0.50082000  0.60339000  1
  O  O1410  1  0.15556000  0.75890000  0.81682000  1
  O  O1411  1  0.13724000  0.72248000  0.76116000  1
  O  O1412  1  0.82006000  0.33478000  0.68430000  1
  O  O1413  1  0.75440000  0.33110000  0.85530000  1
  O  O1414  1  0.79650000  0.37120000  0.77120000  1
  O  O1415  1  0.75720000  0.40070000  0.72170000  1
  O  O1416  1  0.70600000  0.28030000  0.86940000  1
  O  O1417  1  0.01610000  0.58540000  0.79560000  1
  O  O1418  1  0.01140000  0.56580000  0.84060000  1
  O  O1419  1  0.70327000  0.72282000  0.25339000  1
  O  O1420  1  0.75497000  0.67567000  0.22792000  1
  O  O1421  1  0.56914000  0.43384000  0.08154000  1
  O  O1422  1  0.56356000  0.49918000  0.10339000  1
  O  O1423  1  0.34444000  0.24110000  0.31682000  1
  O  O1424  1  0.36276000  0.27752000  0.26116000  1
  O  O1425  1  0.67994000  0.66522000  0.18430000  1
  O  O1426  1  0.74560000  0.66890000  0.35530000  1
  O  O1427  1  0.70350000  0.62880000  0.27120000  1
  O  O1428  1  0.74280000  0.59930000  0.22170000  1
  O  O1429  1  0.79400000  0.71970000  0.36940000  1
  O  O1430  1  0.48390000  0.41460000  0.29560000  1
  O  O1431  1  0.48860000  0.43420000  0.34060000  1
  O  O1432  1  0.72282000  0.25339000  0.70327000  1
  O  O1433  1  0.67567000  0.22792000  0.75497000  1
  O  O1434  1  0.43384000  0.08154000  0.56914000  1
  O  O1435  1  0.49918000  0.10339000  0.56356000  1
  O  O1436  1  0.24110000  0.31682000  0.34444000  1
  O  O1437  1  0.27752000  0.26116000  0.36276000  1
  O  O1438  1  0.66522000  0.18430000  0.67994000  1
  O  O1439  1  0.66890000  0.35530000  0.74560000  1
  O  O1440  1  0.62880000  0.27120000  0.70350000  1
  O  O1441  1  0.59930000  0.22170000  0.74280000  1
  O  O1442  1  0.71970000  0.36940000  0.79400000  1
  O  O1443  1  0.41460000  0.29560000  0.48390000  1
  O  O1444  1  0.43420000  0.34060000  0.48860000  1
  O  O1445  1  0.27718000  0.75339000  0.79673000  1
  O  O1446  1  0.32433000  0.72792000  0.74503000  1
  O  O1447  1  0.56616000  0.58154000  0.93086000  1
  O  O1448  1  0.50082000  0.60339000  0.93644000  1
  O  O1449  1  0.75890000  0.81682000  0.15556000  1
  O  O1450  1  0.72248000  0.76116000  0.13724000  1
  O  O1451  1  0.33478000  0.68430000  0.82006000  1
  O  O1452  1  0.33110000  0.85530000  0.75440000  1
  O  O1453  1  0.37120000  0.77120000  0.79650000  1
  O  O1454  1  0.40070000  0.72170000  0.75720000  1
  O  O1455  1  0.28030000  0.86940000  0.70600000  1
  O  O1456  1  0.58540000  0.79560000  0.01610000  1
  O  O1457  1  0.56580000  0.84060000  0.01140000  1
  O  O1458  1  0.77718000  0.74661000  0.20327000  1
  O  O1459  1  0.82433000  0.77208000  0.25497000  1
  O  O1460  1  0.06616000  0.91846000  0.06914000  1
  O  O1461  1  0.00082000  0.89661000  0.06356000  1
  O  O1462  1  0.25890000  0.68318000  0.84444000  1
  O  O1463  1  0.22248000  0.73884000  0.86276000  1
  O  O1464  1  0.83478000  0.81570000  0.17994000  1
  O  O1465  1  0.83110000  0.64470000  0.24560000  1
  O  O1466  1  0.87120000  0.72880000  0.20350000  1
  O  O1467  1  0.90070000  0.77830000  0.24280000  1
  O  O1468  1  0.78030000  0.63060000  0.29400000  1
  O  O1469  1  0.08540000  0.70440000  0.98390000  1
  O  O1470  1  0.06580000  0.65940000  0.98860000  1
  O  O1471  1  0.22282000  0.24661000  0.29673000  1
  O  O1472  1  0.17567000  0.27208000  0.24503000  1
  O  O1473  1  0.93384000  0.41846000  0.43086000  1
  O  O1474  1  0.99918000  0.39661000  0.43644000  1
  O  O1475  1  0.74110000  0.18318000  0.65556000  1
  O  O1476  1  0.77752000  0.23884000  0.63724000  1
  O  O1477  1  0.16522000  0.31570000  0.32006000  1
  O  O1478  1  0.16890000  0.14470000  0.25440000  1
  O  O1479  1  0.12880000  0.22880000  0.29650000  1
  O  O1480  1  0.09930000  0.27830000  0.25720000  1
  O  O1481  1  0.21970000  0.13060000  0.20600000  1
  O  O1482  1  0.91460000  0.20440000  0.51610000  1
  O  O1483  1  0.93420000  0.15940000  0.51140000  1
  O  O1484  1  0.75339000  0.79673000  0.27718000  1
  O  O1485  1  0.72792000  0.74503000  0.32433000  1
  O  O1486  1  0.58154000  0.93086000  0.56616000  1
  O  O1487  1  0.60339000  0.93644000  0.50082000  1
  O  O1488  1  0.81682000  0.15556000  0.75890000  1
  O  O1489  1  0.76116000  0.13724000  0.72248000  1
  O  O1490  1  0.68430000  0.82006000  0.33478000  1
  O  O1491  1  0.85530000  0.75440000  0.33110000  1
  O  O1492  1  0.77120000  0.79650000  0.37120000  1
  O  O1493  1  0.72170000  0.75720000  0.40070000  1
  O  O1494  1  0.86940000  0.70600000  0.28030000  1
  O  O1495  1  0.79560000  0.01610000  0.58540000  1
  O  O1496  1  0.84060000  0.01140000  0.56580000  1
  O  O1497  1  0.25339000  0.70327000  0.72282000  1
  O  O1498  1  0.22792000  0.75497000  0.67567000  1
  O  O1499  1  0.08154000  0.56914000  0.43384000  1
  O  O1500  1  0.10339000  0.56356000  0.49918000  1
  O  O1501  1  0.31682000  0.34444000  0.24110000  1
  O  O1502  1  0.26116000  0.36276000  0.27752000  1
  O  O1503  1  0.18430000  0.67994000  0.66522000  1
  O  O1504  1  0.35530000  0.74560000  0.66890000  1
  O  O1505  1  0.27120000  0.70350000  0.62880000  1
  O  O1506  1  0.22170000  0.74280000  0.59930000  1
  O  O1507  1  0.36940000  0.79400000  0.71970000  1
  O  O1508  1  0.29560000  0.48390000  0.41460000  1
  O  O1509  1  0.34060000  0.48860000  0.43420000  1
  O  O1510  1  0.24661000  0.29673000  0.22282000  1
  O  O1511  1  0.27208000  0.24503000  0.17567000  1
  O  O1512  1  0.41846000  0.43086000  0.93384000  1
  O  O1513  1  0.39661000  0.43644000  0.99918000  1
  O  O1514  1  0.18318000  0.65556000  0.74110000  1
  O  O1515  1  0.23884000  0.63724000  0.77752000  1
  O  O1516  1  0.31570000  0.32006000  0.16522000  1
  O  O1517  1  0.14470000  0.25440000  0.16890000  1
  O  O1518  1  0.22880000  0.29650000  0.12880000  1
  O  O1519  1  0.27830000  0.25720000  0.09930000  1
  O  O1520  1  0.13060000  0.20600000  0.21970000  1
  O  O1521  1  0.20440000  0.51610000  0.91460000  1
  O  O1522  1  0.15940000  0.51140000  0.93420000  1
  O  O1523  1  0.74661000  0.20327000  0.77718000  1
  O  O1524  1  0.77208000  0.25497000  0.82433000  1
  O  O1525  1  0.91846000  0.06914000  0.06616000  1
  O  O1526  1  0.89661000  0.06356000  0.00082000  1
  O  O1527  1  0.68318000  0.84444000  0.25890000  1
  O  O1528  1  0.73884000  0.86276000  0.22248000  1
  O  O1529  1  0.81570000  0.17994000  0.83478000  1
  O  O1530  1  0.64470000  0.24560000  0.83110000  1
  O  O1531  1  0.72880000  0.20350000  0.87120000  1
  O  O1532  1  0.77830000  0.24280000  0.90070000  1
  O  O1533  1  0.63060000  0.29400000  0.78030000  1
  O  O1534  1  0.70440000  0.98390000  0.08540000  1
  O  O1535  1  0.65940000  0.98860000  0.06580000  1
  O  O1536  1  0.53676000  0.03676000  0.46324000  1
  O  O1537  1  0.46400000  0.96400000  0.53600000  1
  O  O1538  1  0.96324000  0.96324000  0.96324000  1
  O  O1539  1  0.03600000  0.03600000  0.03600000  1
  O  O1540  1  0.46324000  0.53676000  0.03676000  1
  O  O1541  1  0.53600000  0.46400000  0.96400000  1
  O  O1542  1  0.03676000  0.46324000  0.53676000  1
  O  O1543  1  0.96400000  0.53600000  0.46400000  1
  O  O1544  1  0.28676000  0.28676000  0.28676000  1
  O  O1545  1  0.21400000  0.21400000  0.21400000  1
  O  O1546  1  0.21324000  0.71324000  0.78676000  1
  O  O1547  1  0.28600000  0.78600000  0.71400000  1
  O  O1548  1  0.78676000  0.21324000  0.71324000  1
  O  O1549  1  0.71400000  0.28600000  0.78600000  1
  O  O1550  1  0.71324000  0.78676000  0.21324000  1
  O  O1551  1  0.78600000  0.71400000  0.28600000  1
