# generated using pymatgen
data_Zr6H51C93O35
_symmetry_space_group_name_H-M   'P 1'
_cell_length_a   32.84630000
_cell_length_b   32.84630000
_cell_length_c   32.84630000
_cell_angle_alpha   90.00000000
_cell_angle_beta   90.00000000
_cell_angle_gamma   90.00000000
_symmetry_Int_Tables_number   1
_chemical_formula_structural   Zr6H51C93O35
_chemical_formula_sum   'Zr48 H408 C744 O280'
_cell_volume   35437.19721435
_cell_formula_units_Z   8
loop_
 _symmetry_equiv_pos_site_id
 _symmetry_equiv_pos_as_xyz
  1  'x, y, z'
loop_
 _atom_site_type_symbol
 _atom_site_label
 _atom_site_symmetry_multiplicity
 _atom_site_fract_x
 _atom_site_fract_y
 _atom_site_fract_z
 _atom_site_occupancy
  Zr  Zr0  1  0.72018000  0.27816000  0.30694000  1.0
  Zr  Zr1  1  0.73235000  0.31762000  0.20854000  1.0
  Zr  Zr2  1  0.77982000  0.72184000  0.80694000  1.0
  Zr  Zr3  1  0.76765000  0.68238000  0.70854000  1.0
  Zr  Zr4  1  0.27982000  0.77816000  0.19306000  1.0
  Zr  Zr5  1  0.26765000  0.81762000  0.29146000  1.0
  Zr  Zr6  1  0.22018000  0.22184000  0.69306000  1.0
  Zr  Zr7  1  0.23235000  0.18238000  0.79146000  1.0
  Zr  Zr8  1  0.30694000  0.72018000  0.27816000  1.0
  Zr  Zr9  1  0.20854000  0.73235000  0.31762000  1.0
  Zr  Zr10  1  0.80694000  0.77982000  0.72184000  1.0
  Zr  Zr11  1  0.70854000  0.76765000  0.68238000  1.0
  Zr  Zr12  1  0.19306000  0.27982000  0.77816000  1.0
  Zr  Zr13  1  0.29146000  0.26765000  0.81762000  1.0
  Zr  Zr14  1  0.69306000  0.22018000  0.22184000  1.0
  Zr  Zr15  1  0.79146000  0.23235000  0.18238000  1.0
  Zr  Zr16  1  0.27816000  0.30694000  0.72018000  1.0
  Zr  Zr17  1  0.31762000  0.20854000  0.73235000  1.0
  Zr  Zr18  1  0.72184000  0.80694000  0.77982000  1.0
  Zr  Zr19  1  0.68238000  0.70854000  0.76765000  1.0
  Zr  Zr20  1  0.77816000  0.19306000  0.27982000  1.0
  Zr  Zr21  1  0.81762000  0.29146000  0.26765000  1.0
  Zr  Zr22  1  0.22184000  0.69306000  0.22018000  1.0
  Zr  Zr23  1  0.18238000  0.79146000  0.23235000  1.0
  Zr  Zr24  1  0.52816000  0.47018000  0.44306000  1.0
  Zr  Zr25  1  0.56762000  0.48235000  0.54146000  1.0
  Zr  Zr26  1  0.97184000  0.52982000  0.94306000  1.0
  Zr  Zr27  1  0.93238000  0.51765000  0.04146000  1.0
  Zr  Zr28  1  0.02816000  0.02982000  0.55694000  1.0
  Zr  Zr29  1  0.06762000  0.01765000  0.45854000  1.0
  Zr  Zr30  1  0.47184000  0.97018000  0.05694000  1.0
  Zr  Zr31  1  0.43238000  0.98235000  0.95854000  1.0
  Zr  Zr32  1  0.97018000  0.05694000  0.47184000  1.0
  Zr  Zr33  1  0.98235000  0.95854000  0.43238000  1.0
  Zr  Zr34  1  0.02982000  0.55694000  0.02816000  1.0
  Zr  Zr35  1  0.01765000  0.45854000  0.06762000  1.0
  Zr  Zr36  1  0.52982000  0.94306000  0.97184000  1.0
  Zr  Zr37  1  0.51765000  0.04146000  0.93238000  1.0
  Zr  Zr38  1  0.47018000  0.44306000  0.52816000  1.0
  Zr  Zr39  1  0.48235000  0.54146000  0.56762000  1.0
  Zr  Zr40  1  0.55694000  0.02816000  0.02982000  1.0
  Zr  Zr41  1  0.45854000  0.06762000  0.01765000  1.0
  Zr  Zr42  1  0.05694000  0.47184000  0.97018000  1.0
  Zr  Zr43  1  0.95854000  0.43238000  0.98235000  1.0
  Zr  Zr44  1  0.44306000  0.52816000  0.47018000  1.0
  Zr  Zr45  1  0.54146000  0.56762000  0.48235000  1.0
  Zr  Zr46  1  0.94306000  0.97184000  0.52982000  1.0
  Zr  Zr47  1  0.04146000  0.93238000  0.51765000  1.0
  H  H48  1  0.71539000  0.33563000  0.31600000  1.0
  H  H49  1  0.56918000  0.48753000  0.32595000  1.0
  H  H50  1  0.50714000  0.71136000  0.22285000  1.0
  H  H51  1  0.58783000  0.50328000  0.25491000  1.0
  H  H52  1  0.39308000  0.74480000  0.12778000  1.0
  H  H53  1  0.43838000  0.72507000  0.25121000  1.0
  H  H54  1  0.72183000  0.47448000  0.29077000  1.0
  H  H55  1  0.59572000  0.61463000  0.36496000  1.0
  H  H56  1  0.46193000  0.72632000  0.09980000  1.0
  H  H57  1  0.68723000  0.54041000  0.27178000  1.0
  H  H58  1  0.67691000  0.54790000  0.14626000  1.0
  H  H59  1  0.53265000  0.66091000  0.19019000  1.0
  H  H60  1  0.61180000  0.63001000  0.28689000  1.0
  H  H61  1  0.57063000  0.62948000  0.22018000  1.0
  H  H62  1  0.63414000  0.48231000  0.16647000  1.0
  H  H63  1  0.66450000  0.41632000  0.18676000  1.0
  H  H64  1  0.78035000  0.33187000  0.09129000  1.0
  H  H65  1  0.78461000  0.66437000  0.81600000  1.0
  H  H66  1  0.93082000  0.51247000  0.82595000  1.0
  H  H67  1  0.99286000  0.28864000  0.72285000  1.0
  H  H68  1  0.91217000  0.49672000  0.75491000  1.0
  H  H69  1  0.10692000  0.25520000  0.62778000  1.0
  H  H70  1  0.06162000  0.27493000  0.75121000  1.0
  H  H71  1  0.77817000  0.52552000  0.79077000  1.0
  H  H72  1  0.90428000  0.38537000  0.86496000  1.0
  H  H73  1  0.03807000  0.27368000  0.59980000  1.0
  H  H74  1  0.81277000  0.45959000  0.77178000  1.0
  H  H75  1  0.82309000  0.45210000  0.64626000  1.0
  H  H76  1  0.96735000  0.33909000  0.69019000  1.0
  H  H77  1  0.88820000  0.36999000  0.78689000  1.0
  H  H78  1  0.92937000  0.37052000  0.72018000  1.0
  H  H79  1  0.86586000  0.51769000  0.66647000  1.0
  H  H80  1  0.83550000  0.58368000  0.68676000  1.0
  H  H81  1  0.71965000  0.66813000  0.59129000  1.0
  H  H82  1  0.28461000  0.83563000  0.18400000  1.0
  H  H83  1  0.43082000  0.98753000  0.17405000  1.0
  H  H84  1  0.49286000  0.21136000  0.27715000  1.0
  H  H85  1  0.41217000  0.00328000  0.24509000  1.0
  H  H86  1  0.60692000  0.24480000  0.37222000  1.0
  H  H87  1  0.56162000  0.22507000  0.24879000  1.0
  H  H88  1  0.27817000  0.97448000  0.20923000  1.0
  H  H89  1  0.40428000  0.11463000  0.13504000  1.0
  H  H90  1  0.53807000  0.22632000  0.40020000  1.0
  H  H91  1  0.31277000  0.04041000  0.22822000  1.0
  H  H92  1  0.32309000  0.04790000  0.35374000  1.0
  H  H93  1  0.46735000  0.16091000  0.30981000  1.0
  H  H94  1  0.38820000  0.13001000  0.21311000  1.0
  H  H95  1  0.42937000  0.12948000  0.27982000  1.0
  H  H96  1  0.36586000  0.98231000  0.33353000  1.0
  H  H97  1  0.33550000  0.91632000  0.31324000  1.0
  H  H98  1  0.21965000  0.83187000  0.40871000  1.0
  H  H99  1  0.21539000  0.16437000  0.68400000  1.0
  H  H100  1  0.06918000  0.01247000  0.67405000  1.0
  H  H101  1  0.00714000  0.78864000  0.77715000  1.0
  H  H102  1  0.08783000  0.99672000  0.74509000  1.0
  H  H103  1  0.89308000  0.75520000  0.87222000  1.0
  H  H104  1  0.93838000  0.77493000  0.74879000  1.0
  H  H105  1  0.22183000  0.02552000  0.70923000  1.0
  H  H106  1  0.09572000  0.88537000  0.63504000  1.0
  H  H107  1  0.96193000  0.77368000  0.90020000  1.0
  H  H108  1  0.18723000  0.95959000  0.72822000  1.0
  H  H109  1  0.17691000  0.95210000  0.85374000  1.0
  H  H110  1  0.03265000  0.83909000  0.80981000  1.0
  H  H111  1  0.11180000  0.86999000  0.71311000  1.0
  H  H112  1  0.07063000  0.87052000  0.77982000  1.0
  H  H113  1  0.13414000  0.01769000  0.83353000  1.0
  H  H114  1  0.16450000  0.08368000  0.81324000  1.0
  H  H115  1  0.28035000  0.16813000  0.90871000  1.0
  H  H116  1  0.31600000  0.71539000  0.33563000  1.0
  H  H117  1  0.32595000  0.56918000  0.48753000  1.0
  H  H118  1  0.22285000  0.50714000  0.71136000  1.0
  H  H119  1  0.25491000  0.58783000  0.50328000  1.0
  H  H120  1  0.12778000  0.39308000  0.74480000  1.0
  H  H121  1  0.25121000  0.43838000  0.72507000  1.0
  H  H122  1  0.29077000  0.72183000  0.47448000  1.0
  H  H123  1  0.36496000  0.59572000  0.61463000  1.0
  H  H124  1  0.09980000  0.46193000  0.72632000  1.0
  H  H125  1  0.27178000  0.68723000  0.54041000  1.0
  H  H126  1  0.14626000  0.67691000  0.54790000  1.0
  H  H127  1  0.19019000  0.53265000  0.66091000  1.0
  H  H128  1  0.28689000  0.61180000  0.63001000  1.0
  H  H129  1  0.22018000  0.57063000  0.62948000  1.0
  H  H130  1  0.16647000  0.63414000  0.48231000  1.0
  H  H131  1  0.18676000  0.66450000  0.41632000  1.0
  H  H132  1  0.09129000  0.78035000  0.33187000  1.0
  H  H133  1  0.81600000  0.78461000  0.66437000  1.0
  H  H134  1  0.82595000  0.93082000  0.51247000  1.0
  H  H135  1  0.72285000  0.99286000  0.28864000  1.0
  H  H136  1  0.75491000  0.91217000  0.49672000  1.0
  H  H137  1  0.62778000  0.10692000  0.25520000  1.0
  H  H138  1  0.75121000  0.06162000  0.27493000  1.0
  H  H139  1  0.79077000  0.77817000  0.52552000  1.0
  H  H140  1  0.86496000  0.90428000  0.38537000  1.0
  H  H141  1  0.59980000  0.03807000  0.27368000  1.0
  H  H142  1  0.77178000  0.81277000  0.45959000  1.0
  H  H143  1  0.64626000  0.82309000  0.45210000  1.0
  H  H144  1  0.69019000  0.96735000  0.33909000  1.0
  H  H145  1  0.78689000  0.88820000  0.36999000  1.0
  H  H146  1  0.72018000  0.92937000  0.37052000  1.0
  H  H147  1  0.66647000  0.86586000  0.51769000  1.0
  H  H148  1  0.68676000  0.83550000  0.58368000  1.0
  H  H149  1  0.59129000  0.71965000  0.66813000  1.0
  H  H150  1  0.18400000  0.28461000  0.83563000  1.0
  H  H151  1  0.17405000  0.43082000  0.98753000  1.0
  H  H152  1  0.27715000  0.49286000  0.21136000  1.0
  H  H153  1  0.24509000  0.41217000  0.00328000  1.0
  H  H154  1  0.37222000  0.60692000  0.24480000  1.0
  H  H155  1  0.24879000  0.56162000  0.22507000  1.0
  H  H156  1  0.20923000  0.27817000  0.97448000  1.0
  H  H157  1  0.13504000  0.40428000  0.11463000  1.0
  H  H158  1  0.40020000  0.53807000  0.22632000  1.0
  H  H159  1  0.22822000  0.31277000  0.04041000  1.0
  H  H160  1  0.35374000  0.32309000  0.04790000  1.0
  H  H161  1  0.30981000  0.46735000  0.16091000  1.0
  H  H162  1  0.21311000  0.38820000  0.13001000  1.0
  H  H163  1  0.27982000  0.42937000  0.12948000  1.0
  H  H164  1  0.33353000  0.36586000  0.98231000  1.0
  H  H165  1  0.31324000  0.33550000  0.91632000  1.0
  H  H166  1  0.40871000  0.21965000  0.83187000  1.0
  H  H167  1  0.68400000  0.21539000  0.16437000  1.0
  H  H168  1  0.67405000  0.06918000  0.01247000  1.0
  H  H169  1  0.77715000  0.00714000  0.78864000  1.0
  H  H170  1  0.74509000  0.08783000  0.99672000  1.0
  H  H171  1  0.87222000  0.89308000  0.75520000  1.0
  H  H172  1  0.74879000  0.93838000  0.77493000  1.0
  H  H173  1  0.70923000  0.22183000  0.02552000  1.0
  H  H174  1  0.63504000  0.09572000  0.88537000  1.0
  H  H175  1  0.90020000  0.96193000  0.77368000  1.0
  H  H176  1  0.72822000  0.18723000  0.95959000  1.0
  H  H177  1  0.85374000  0.17691000  0.95210000  1.0
  H  H178  1  0.80981000  0.03265000  0.83909000  1.0
  H  H179  1  0.71311000  0.11180000  0.86999000  1.0
  H  H180  1  0.77982000  0.07063000  0.87052000  1.0
  H  H181  1  0.83353000  0.13414000  0.01769000  1.0
  H  H182  1  0.81324000  0.16450000  0.08368000  1.0
  H  H183  1  0.90871000  0.28035000  0.16813000  1.0
  H  H184  1  0.33563000  0.31600000  0.71539000  1.0
  H  H185  1  0.48753000  0.32595000  0.56918000  1.0
  H  H186  1  0.71136000  0.22285000  0.50714000  1.0
  H  H187  1  0.50328000  0.25491000  0.58783000  1.0
  H  H188  1  0.74480000  0.12778000  0.39308000  1.0
  H  H189  1  0.72507000  0.25121000  0.43838000  1.0
  H  H190  1  0.47448000  0.29077000  0.72183000  1.0
  H  H191  1  0.61463000  0.36496000  0.59572000  1.0
  H  H192  1  0.72632000  0.09980000  0.46193000  1.0
  H  H193  1  0.54041000  0.27178000  0.68723000  1.0
  H  H194  1  0.54790000  0.14626000  0.67691000  1.0
  H  H195  1  0.66091000  0.19019000  0.53265000  1.0
  H  H196  1  0.63001000  0.28689000  0.61180000  1.0
  H  H197  1  0.62948000  0.22018000  0.57063000  1.0
  H  H198  1  0.48231000  0.16647000  0.63414000  1.0
  H  H199  1  0.41632000  0.18676000  0.66450000  1.0
  H  H200  1  0.33187000  0.09129000  0.78035000  1.0
  H  H201  1  0.66437000  0.81600000  0.78461000  1.0
  H  H202  1  0.51247000  0.82595000  0.93082000  1.0
  H  H203  1  0.28864000  0.72285000  0.99286000  1.0
  H  H204  1  0.49672000  0.75491000  0.91217000  1.0
  H  H205  1  0.25520000  0.62778000  0.10692000  1.0
  H  H206  1  0.27493000  0.75121000  0.06162000  1.0
  H  H207  1  0.52552000  0.79077000  0.77817000  1.0
  H  H208  1  0.38537000  0.86496000  0.90428000  1.0
  H  H209  1  0.27368000  0.59980000  0.03807000  1.0
  H  H210  1  0.45959000  0.77178000  0.81277000  1.0
  H  H211  1  0.45210000  0.64626000  0.82309000  1.0
  H  H212  1  0.33909000  0.69019000  0.96735000  1.0
  H  H213  1  0.36999000  0.78689000  0.88820000  1.0
  H  H214  1  0.37052000  0.72018000  0.92937000  1.0
  H  H215  1  0.51769000  0.66647000  0.86586000  1.0
  H  H216  1  0.58368000  0.68676000  0.83550000  1.0
  H  H217  1  0.66813000  0.59129000  0.71965000  1.0
  H  H218  1  0.83563000  0.18400000  0.28461000  1.0
  H  H219  1  0.98753000  0.17405000  0.43082000  1.0
  H  H220  1  0.21136000  0.27715000  0.49286000  1.0
  H  H221  1  0.00328000  0.24509000  0.41217000  1.0
  H  H222  1  0.24480000  0.37222000  0.60692000  1.0
  H  H223  1  0.22507000  0.24879000  0.56162000  1.0
  H  H224  1  0.97448000  0.20923000  0.27817000  1.0
  H  H225  1  0.11463000  0.13504000  0.40428000  1.0
  H  H226  1  0.22632000  0.40020000  0.53807000  1.0
  H  H227  1  0.04041000  0.22822000  0.31277000  1.0
  H  H228  1  0.04790000  0.35374000  0.32309000  1.0
  H  H229  1  0.16091000  0.30981000  0.46735000  1.0
  H  H230  1  0.13001000  0.21311000  0.38820000  1.0
  H  H231  1  0.12948000  0.27982000  0.42937000  1.0
  H  H232  1  0.98231000  0.33353000  0.36586000  1.0
  H  H233  1  0.91632000  0.31324000  0.33550000  1.0
  H  H234  1  0.83187000  0.40871000  0.21965000  1.0
  H  H235  1  0.16437000  0.68400000  0.21539000  1.0
  H  H236  1  0.01247000  0.67405000  0.06918000  1.0
  H  H237  1  0.78864000  0.77715000  0.00714000  1.0
  H  H238  1  0.99672000  0.74509000  0.08783000  1.0
  H  H239  1  0.75520000  0.87222000  0.89308000  1.0
  H  H240  1  0.77493000  0.74879000  0.93838000  1.0
  H  H241  1  0.02552000  0.70923000  0.22183000  1.0
  H  H242  1  0.88537000  0.63504000  0.09572000  1.0
  H  H243  1  0.77368000  0.90020000  0.96193000  1.0
  H  H244  1  0.95959000  0.72822000  0.18723000  1.0
  H  H245  1  0.95210000  0.85374000  0.17691000  1.0
  H  H246  1  0.83909000  0.80981000  0.03265000  1.0
  H  H247  1  0.86999000  0.71311000  0.11180000  1.0
  H  H248  1  0.87052000  0.77982000  0.07063000  1.0
  H  H249  1  0.01769000  0.83353000  0.13414000  1.0
  H  H250  1  0.08368000  0.81324000  0.16450000  1.0
  H  H251  1  0.16813000  0.90871000  0.28035000  1.0
  H  H252  1  0.58563000  0.46539000  0.43400000  1.0
  H  H253  1  0.73753000  0.31918000  0.42405000  1.0
  H  H254  1  0.96136000  0.25714000  0.52715000  1.0
  H  H255  1  0.75328000  0.33783000  0.49509000  1.0
  H  H256  1  0.99480000  0.14308000  0.62222000  1.0
  H  H257  1  0.97507000  0.18838000  0.49879000  1.0
  H  H258  1  0.72448000  0.47183000  0.45923000  1.0
  H  H259  1  0.86463000  0.34572000  0.38504000  1.0
  H  H260  1  0.97632000  0.21193000  0.65020000  1.0
  H  H261  1  0.79041000  0.43723000  0.47822000  1.0
  H  H262  1  0.79790000  0.42691000  0.60374000  1.0
  H  H263  1  0.91091000  0.28265000  0.55981000  1.0
  H  H264  1  0.88001000  0.36180000  0.46311000  1.0
  H  H265  1  0.87948000  0.32063000  0.52982000  1.0
  H  H266  1  0.73231000  0.38414000  0.58353000  1.0
  H  H267  1  0.66632000  0.41450000  0.56324000  1.0
  H  H268  1  0.58187000  0.53035000  0.65871000  1.0
  H  H269  1  0.91437000  0.53461000  0.93400000  1.0
  H  H270  1  0.76247000  0.68082000  0.92405000  1.0
  H  H271  1  0.53864000  0.74286000  0.02715000  1.0
  H  H272  1  0.74672000  0.66217000  0.99509000  1.0
  H  H273  1  0.50520000  0.85692000  0.12222000  1.0
  H  H274  1  0.52493000  0.81162000  0.99879000  1.0
  H  H275  1  0.77552000  0.52817000  0.95923000  1.0
  H  H276  1  0.63537000  0.65428000  0.88504000  1.0
  H  H277  1  0.52368000  0.78807000  0.15020000  1.0
  H  H278  1  0.70959000  0.56277000  0.97822000  1.0
  H  H279  1  0.70210000  0.57309000  0.10374000  1.0
  H  H280  1  0.58909000  0.71735000  0.05981000  1.0
  H  H281  1  0.61999000  0.63820000  0.96311000  1.0
  H  H282  1  0.62052000  0.67937000  0.02982000  1.0
  H  H283  1  0.76769000  0.61586000  0.08353000  1.0
  H  H284  1  0.83368000  0.58550000  0.06324000  1.0
  H  H285  1  0.91813000  0.46965000  0.15871000  1.0
  H  H286  1  0.08563000  0.03461000  0.56600000  1.0
  H  H287  1  0.23753000  0.18082000  0.57595000  1.0
  H  H288  1  0.46136000  0.24286000  0.47285000  1.0
  H  H289  1  0.25328000  0.16217000  0.50491000  1.0
  H  H290  1  0.49480000  0.35692000  0.37778000  1.0
  H  H291  1  0.47507000  0.31162000  0.50121000  1.0
  H  H292  1  0.22448000  0.02817000  0.54077000  1.0
  H  H293  1  0.36463000  0.15428000  0.61496000  1.0
  H  H294  1  0.47632000  0.28807000  0.34980000  1.0
  H  H295  1  0.29041000  0.06277000  0.52178000  1.0
  H  H296  1  0.29790000  0.07309000  0.39626000  1.0
  H  H297  1  0.41091000  0.21735000  0.44019000  1.0
  H  H298  1  0.38001000  0.13820000  0.53689000  1.0
  H  H299  1  0.37948000  0.17937000  0.47018000  1.0
  H  H300  1  0.23231000  0.11586000  0.41647000  1.0
  H  H301  1  0.16632000  0.08550000  0.43676000  1.0
  H  H302  1  0.08187000  0.96965000  0.34129000  1.0
  H  H303  1  0.41437000  0.96539000  0.06600000  1.0
  H  H304  1  0.26247000  0.81918000  0.07595000  1.0
  H  H305  1  0.03864000  0.75714000  0.97285000  1.0
  H  H306  1  0.24672000  0.83783000  0.00491000  1.0
  H  H307  1  0.00520000  0.64308000  0.87778000  1.0
  H  H308  1  0.02493000  0.68838000  0.00121000  1.0
  H  H309  1  0.27552000  0.97183000  0.04077000  1.0
  H  H310  1  0.13537000  0.84572000  0.11496000  1.0
  H  H311  1  0.02368000  0.71193000  0.84980000  1.0
  H  H312  1  0.20959000  0.93723000  0.02178000  1.0
  H  H313  1  0.20210000  0.92691000  0.89626000  1.0
  H  H314  1  0.08909000  0.78265000  0.94019000  1.0
  H  H315  1  0.11999000  0.86180000  0.03689000  1.0
  H  H316  1  0.12052000  0.82063000  0.97018000  1.0
  H  H317  1  0.26769000  0.88414000  0.91647000  1.0
  H  H318  1  0.33368000  0.91450000  0.93676000  1.0
  H  H319  1  0.41813000  0.03035000  0.84129000  1.0
  H  H320  1  0.96539000  0.06600000  0.41437000  1.0
  H  H321  1  0.81918000  0.07595000  0.26247000  1.0
  H  H322  1  0.75714000  0.97285000  0.03864000  1.0
  H  H323  1  0.83783000  0.00491000  0.24672000  1.0
  H  H324  1  0.64308000  0.87778000  0.00520000  1.0
  H  H325  1  0.68838000  0.00121000  0.02493000  1.0
  H  H326  1  0.97183000  0.04077000  0.27552000  1.0
  H  H327  1  0.84572000  0.11496000  0.13537000  1.0
  H  H328  1  0.71193000  0.84980000  0.02368000  1.0
  H  H329  1  0.93723000  0.02178000  0.20959000  1.0
  H  H330  1  0.92691000  0.89626000  0.20210000  1.0
  H  H331  1  0.78265000  0.94019000  0.08909000  1.0
  H  H332  1  0.86180000  0.03689000  0.11999000  1.0
  H  H333  1  0.82063000  0.97018000  0.12052000  1.0
  H  H334  1  0.88414000  0.91647000  0.26769000  1.0
  H  H335  1  0.91450000  0.93676000  0.33368000  1.0
  H  H336  1  0.03035000  0.84129000  0.41813000  1.0
  H  H337  1  0.03461000  0.56600000  0.08563000  1.0
  H  H338  1  0.18082000  0.57595000  0.23753000  1.0
  H  H339  1  0.24286000  0.47285000  0.46136000  1.0
  H  H340  1  0.16217000  0.50491000  0.25328000  1.0
  H  H341  1  0.35692000  0.37778000  0.49480000  1.0
  H  H342  1  0.31162000  0.50121000  0.47507000  1.0
  H  H343  1  0.02817000  0.54077000  0.22448000  1.0
  H  H344  1  0.15428000  0.61496000  0.36463000  1.0
  H  H345  1  0.28807000  0.34980000  0.47632000  1.0
  H  H346  1  0.06277000  0.52178000  0.29041000  1.0
  H  H347  1  0.07309000  0.39626000  0.29790000  1.0
  H  H348  1  0.21735000  0.44019000  0.41091000  1.0
  H  H349  1  0.13820000  0.53689000  0.38001000  1.0
  H  H350  1  0.17937000  0.47018000  0.37948000  1.0
  H  H351  1  0.11586000  0.41647000  0.23231000  1.0
  H  H352  1  0.08550000  0.43676000  0.16632000  1.0
  H  H353  1  0.96965000  0.34129000  0.08187000  1.0
  H  H354  1  0.53461000  0.93400000  0.91437000  1.0
  H  H355  1  0.68082000  0.92405000  0.76247000  1.0
  H  H356  1  0.74286000  0.02715000  0.53864000  1.0
  H  H357  1  0.66217000  0.99509000  0.74672000  1.0
  H  H358  1  0.85692000  0.12222000  0.50520000  1.0
  H  H359  1  0.81162000  0.99879000  0.52493000  1.0
  H  H360  1  0.52817000  0.95923000  0.77552000  1.0
  H  H361  1  0.65428000  0.88504000  0.63537000  1.0
  H  H362  1  0.78807000  0.15020000  0.52368000  1.0
  H  H363  1  0.56277000  0.97822000  0.70959000  1.0
  H  H364  1  0.57309000  0.10374000  0.70210000  1.0
  H  H365  1  0.71735000  0.05981000  0.58909000  1.0
  H  H366  1  0.63820000  0.96311000  0.61999000  1.0
  H  H367  1  0.67937000  0.02982000  0.62052000  1.0
  H  H368  1  0.61586000  0.08353000  0.76769000  1.0
  H  H369  1  0.58550000  0.06324000  0.83368000  1.0
  H  H370  1  0.46965000  0.15871000  0.91813000  1.0
  H  H371  1  0.46539000  0.43400000  0.58563000  1.0
  H  H372  1  0.31918000  0.42405000  0.73753000  1.0
  H  H373  1  0.25714000  0.52715000  0.96136000  1.0
  H  H374  1  0.33783000  0.49509000  0.75328000  1.0
  H  H375  1  0.14308000  0.62222000  0.99480000  1.0
  H  H376  1  0.18838000  0.49879000  0.97507000  1.0
  H  H377  1  0.47183000  0.45923000  0.72448000  1.0
  H  H378  1  0.34572000  0.38504000  0.86463000  1.0
  H  H379  1  0.21193000  0.65020000  0.97632000  1.0
  H  H380  1  0.43723000  0.47822000  0.79041000  1.0
  H  H381  1  0.42691000  0.60374000  0.79790000  1.0
  H  H382  1  0.28265000  0.55981000  0.91091000  1.0
  H  H383  1  0.36180000  0.46311000  0.88001000  1.0
  H  H384  1  0.32063000  0.52982000  0.87948000  1.0
  H  H385  1  0.38414000  0.58353000  0.73231000  1.0
  H  H386  1  0.41450000  0.56324000  0.66632000  1.0
  H  H387  1  0.53035000  0.65871000  0.58187000  1.0
  H  H388  1  0.56600000  0.08563000  0.03461000  1.0
  H  H389  1  0.57595000  0.23753000  0.18082000  1.0
  H  H390  1  0.47285000  0.46136000  0.24286000  1.0
  H  H391  1  0.50491000  0.25328000  0.16217000  1.0
  H  H392  1  0.37778000  0.49480000  0.35692000  1.0
  H  H393  1  0.50121000  0.47507000  0.31162000  1.0
  H  H394  1  0.54077000  0.22448000  0.02817000  1.0
  H  H395  1  0.61496000  0.36463000  0.15428000  1.0
  H  H396  1  0.34980000  0.47632000  0.28807000  1.0
  H  H397  1  0.52178000  0.29041000  0.06277000  1.0
  H  H398  1  0.39626000  0.29790000  0.07309000  1.0
  H  H399  1  0.44019000  0.41091000  0.21735000  1.0
  H  H400  1  0.53689000  0.38001000  0.13820000  1.0
  H  H401  1  0.47018000  0.37948000  0.17937000  1.0
  H  H402  1  0.41647000  0.23231000  0.11586000  1.0
  H  H403  1  0.43676000  0.16632000  0.08550000  1.0
  H  H404  1  0.34129000  0.08187000  0.96965000  1.0
  H  H405  1  0.06600000  0.41437000  0.96539000  1.0
  H  H406  1  0.07595000  0.26247000  0.81918000  1.0
  H  H407  1  0.97285000  0.03864000  0.75714000  1.0
  H  H408  1  0.00491000  0.24672000  0.83783000  1.0
  H  H409  1  0.87778000  0.00520000  0.64308000  1.0
  H  H410  1  0.00121000  0.02493000  0.68838000  1.0
  H  H411  1  0.04077000  0.27552000  0.97183000  1.0
  H  H412  1  0.11496000  0.13537000  0.84572000  1.0
  H  H413  1  0.84980000  0.02368000  0.71193000  1.0
  H  H414  1  0.02178000  0.20959000  0.93723000  1.0
  H  H415  1  0.89626000  0.20210000  0.92691000  1.0
  H  H416  1  0.94019000  0.08909000  0.78265000  1.0
  H  H417  1  0.03689000  0.11999000  0.86180000  1.0
  H  H418  1  0.97018000  0.12052000  0.82063000  1.0
  H  H419  1  0.91647000  0.26769000  0.88414000  1.0
  H  H420  1  0.93676000  0.33368000  0.91450000  1.0
  H  H421  1  0.84129000  0.41813000  0.03035000  1.0
  H  H422  1  0.43400000  0.58563000  0.46539000  1.0
  H  H423  1  0.42405000  0.73753000  0.31918000  1.0
  H  H424  1  0.52715000  0.96136000  0.25714000  1.0
  H  H425  1  0.49509000  0.75328000  0.33783000  1.0
  H  H426  1  0.62222000  0.99480000  0.14308000  1.0
  H  H427  1  0.49879000  0.97507000  0.18838000  1.0
  H  H428  1  0.45923000  0.72448000  0.47183000  1.0
  H  H429  1  0.38504000  0.86463000  0.34572000  1.0
  H  H430  1  0.65020000  0.97632000  0.21193000  1.0
  H  H431  1  0.47822000  0.79041000  0.43723000  1.0
  H  H432  1  0.60374000  0.79790000  0.42691000  1.0
  H  H433  1  0.55981000  0.91091000  0.28265000  1.0
  H  H434  1  0.46311000  0.88001000  0.36180000  1.0
  H  H435  1  0.52982000  0.87948000  0.32063000  1.0
  H  H436  1  0.58353000  0.73231000  0.38414000  1.0
  H  H437  1  0.56324000  0.66632000  0.41450000  1.0
  H  H438  1  0.65871000  0.58187000  0.53035000  1.0
  H  H439  1  0.93400000  0.91437000  0.53461000  1.0
  H  H440  1  0.92405000  0.76247000  0.68082000  1.0
  H  H441  1  0.02715000  0.53864000  0.74286000  1.0
  H  H442  1  0.99509000  0.74672000  0.66217000  1.0
  H  H443  1  0.12222000  0.50520000  0.85692000  1.0
  H  H444  1  0.99879000  0.52493000  0.81162000  1.0
  H  H445  1  0.95923000  0.77552000  0.52817000  1.0
  H  H446  1  0.88504000  0.63537000  0.65428000  1.0
  H  H447  1  0.15020000  0.52368000  0.78807000  1.0
  H  H448  1  0.97822000  0.70959000  0.56277000  1.0
  H  H449  1  0.10374000  0.70210000  0.57309000  1.0
  H  H450  1  0.05981000  0.58909000  0.71735000  1.0
  H  H451  1  0.96311000  0.61999000  0.63820000  1.0
  H  H452  1  0.02982000  0.62052000  0.67937000  1.0
  H  H453  1  0.08353000  0.76769000  0.61586000  1.0
  H  H454  1  0.06324000  0.83368000  0.58550000  1.0
  H  H455  1  0.15871000  0.91813000  0.46965000  1.0
  C  C456  1  0.41070000  0.73260000  0.19000000  1.0
  C  C457  1  0.57110000  0.54070000  0.39150000  1.0
  C  C458  1  0.58120000  0.54980000  0.34930000  1.0
  C  C459  1  0.36950000  0.73930000  0.20610000  1.0
  C  C460  1  0.57940000  0.51980000  0.31830000  1.0
  C  C461  1  0.48140000  0.71750000  0.20040000  1.0
  C  C462  1  0.58960000  0.52820000  0.27900000  1.0
  C  C463  1  0.69580000  0.44260000  0.23860000  1.0
  C  C464  1  0.48900000  0.71720000  0.15930000  1.0
  C  C465  1  0.41830000  0.73520000  0.14960000  1.0
  C  C466  1  0.65950000  0.51600000  0.21630000  1.0
  C  C467  1  0.44290000  0.72510000  0.21680000  1.0
  C  C468  1  0.60250000  0.56780000  0.26750000  1.0
  C  C469  1  0.70180000  0.47650000  0.26250000  1.0
  C  C470  1  0.59380000  0.59080000  0.33980000  1.0
  C  C471  1  0.45730000  0.72610000  0.13420000  1.0
  C  C472  1  0.58240000  0.65390000  0.14400000  1.0
  C  C473  1  0.68290000  0.51280000  0.25120000  1.0
  C  C474  1  0.65270000  0.56620000  0.16310000  1.0
  C  C475  1  0.54660000  0.67300000  0.16080000  1.0
  C  C476  1  0.60450000  0.62220000  0.16620000  1.0
  C  C477  1  0.52830000  0.70490000  0.14350000  1.0
  C  C478  1  0.63500000  0.60060000  0.14450000  1.0
  C  C479  1  0.64130000  0.55370000  0.20210000  1.0
  C  C480  1  0.61270000  0.57730000  0.22430000  1.0
  C  C481  1  0.60320000  0.59810000  0.29750000  1.0
  C  C482  1  0.59490000  0.61050000  0.20420000  1.0
  C  C483  1  0.71510000  0.40370000  0.24930000  1.0
  C  C484  1  0.65390000  0.48190000  0.19500000  1.0
  C  C485  1  0.67100000  0.44480000  0.20550000  1.0
  C  C486  1  0.77290000  0.31630000  0.12140000  1.0
  C  C487  1  0.08930000  0.26740000  0.69000000  1.0
  C  C488  1  0.92890000  0.45930000  0.89150000  1.0
  C  C489  1  0.91880000  0.45020000  0.84930000  1.0
  C  C490  1  0.13050000  0.26070000  0.70610000  1.0
  C  C491  1  0.92060000  0.48020000  0.81830000  1.0
  C  C492  1  0.01860000  0.28250000  0.70040000  1.0
  C  C493  1  0.91040000  0.47180000  0.77900000  1.0
  C  C494  1  0.80420000  0.55740000  0.73860000  1.0
  C  C495  1  0.01100000  0.28280000  0.65930000  1.0
  C  C496  1  0.08170000  0.26480000  0.64960000  1.0
  C  C497  1  0.84050000  0.48400000  0.71630000  1.0
  C  C498  1  0.05710000  0.27490000  0.71680000  1.0
  C  C499  1  0.89750000  0.43220000  0.76750000  1.0
  C  C500  1  0.79820000  0.52350000  0.76250000  1.0
  C  C501  1  0.90620000  0.40920000  0.83980000  1.0
  C  C502  1  0.04270000  0.27390000  0.63420000  1.0
  C  C503  1  0.91760000  0.34610000  0.64400000  1.0
  C  C504  1  0.81710000  0.48720000  0.75120000  1.0
  C  C505  1  0.84730000  0.43380000  0.66310000  1.0
  C  C506  1  0.95340000  0.32700000  0.66080000  1.0
  C  C507  1  0.89550000  0.37780000  0.66620000  1.0
  C  C508  1  0.97170000  0.29510000  0.64350000  1.0
  C  C509  1  0.86500000  0.39940000  0.64450000  1.0
  C  C510  1  0.85870000  0.44630000  0.70210000  1.0
  C  C511  1  0.88730000  0.42270000  0.72430000  1.0
  C  C512  1  0.89680000  0.40190000  0.79750000  1.0
  C  C513  1  0.90510000  0.38950000  0.70420000  1.0
  C  C514  1  0.78490000  0.59630000  0.74930000  1.0
  C  C515  1  0.84610000  0.51810000  0.69500000  1.0
  C  C516  1  0.82900000  0.55520000  0.70550000  1.0
  C  C517  1  0.72710000  0.68370000  0.62140000  1.0
  C  C518  1  0.58930000  0.23260000  0.31000000  1.0
  C  C519  1  0.42890000  0.04070000  0.10850000  1.0
  C  C520  1  0.41880000  0.04980000  0.15070000  1.0
  C  C521  1  0.63050000  0.23930000  0.29390000  1.0
  C  C522  1  0.42060000  0.01980000  0.18170000  1.0
  C  C523  1  0.51860000  0.21750000  0.29960000  1.0
  C  C524  1  0.41040000  0.02820000  0.22100000  1.0
  C  C525  1  0.30420000  0.94260000  0.26140000  1.0
  C  C526  1  0.51100000  0.21720000  0.34070000  1.0
  C  C527  1  0.58170000  0.23520000  0.35040000  1.0
  C  C528  1  0.34050000  0.01600000  0.28370000  1.0
  C  C529  1  0.55710000  0.22510000  0.28320000  1.0
  C  C530  1  0.39750000  0.06780000  0.23250000  1.0
  C  C531  1  0.29820000  0.97650000  0.23750000  1.0
  C  C532  1  0.40620000  0.09080000  0.16020000  1.0
  C  C533  1  0.54270000  0.22610000  0.36580000  1.0
  C  C534  1  0.41760000  0.15390000  0.35600000  1.0
  C  C535  1  0.31710000  0.01280000  0.24880000  1.0
  C  C536  1  0.34730000  0.06620000  0.33690000  1.0
  C  C537  1  0.45340000  0.17300000  0.33920000  1.0
  C  C538  1  0.39550000  0.12220000  0.33380000  1.0
  C  C539  1  0.47170000  0.20490000  0.35650000  1.0
  C  C540  1  0.36500000  0.10060000  0.35550000  1.0
  C  C541  1  0.35870000  0.05370000  0.29790000  1.0
  C  C542  1  0.38730000  0.07730000  0.27570000  1.0
  C  C543  1  0.39680000  0.09810000  0.20250000  1.0
  C  C544  1  0.40510000  0.11050000  0.29580000  1.0
  C  C545  1  0.28490000  0.90370000  0.25070000  1.0
  C  C546  1  0.34610000  0.98190000  0.30500000  1.0
  C  C547  1  0.32900000  0.94480000  0.29450000  1.0
  C  C548  1  0.22710000  0.81630000  0.37860000  1.0
  C  C549  1  0.91070000  0.76740000  0.81000000  1.0
  C  C550  1  0.07110000  0.95930000  0.60850000  1.0
  C  C551  1  0.08120000  0.95020000  0.65070000  1.0
  C  C552  1  0.86950000  0.76070000  0.79390000  1.0
  C  C553  1  0.07940000  0.98020000  0.68170000  1.0
  C  C554  1  0.98140000  0.78250000  0.79960000  1.0
  C  C555  1  0.08960000  0.97180000  0.72100000  1.0
  C  C556  1  0.19580000  0.05740000  0.76140000  1.0
  C  C557  1  0.98900000  0.78280000  0.84070000  1.0
  C  C558  1  0.91830000  0.76480000  0.85040000  1.0
  C  C559  1  0.15950000  0.98400000  0.78370000  1.0
  C  C560  1  0.94290000  0.77490000  0.78320000  1.0
  C  C561  1  0.10250000  0.93220000  0.73250000  1.0
  C  C562  1  0.20180000  0.02350000  0.73750000  1.0
  C  C563  1  0.09380000  0.90920000  0.66020000  1.0
  C  C564  1  0.95730000  0.77390000  0.86580000  1.0
  C  C565  1  0.08240000  0.84610000  0.85600000  1.0
  C  C566  1  0.18290000  0.98720000  0.74880000  1.0
  C  C567  1  0.15270000  0.93380000  0.83690000  1.0
  C  C568  1  0.04660000  0.82700000  0.83920000  1.0
  C  C569  1  0.10450000  0.87780000  0.83380000  1.0
  C  C570  1  0.02830000  0.79510000  0.85650000  1.0
  C  C571  1  0.13500000  0.89940000  0.85550000  1.0
  C  C572  1  0.14130000  0.94630000  0.79790000  1.0
  C  C573  1  0.11270000  0.92270000  0.77570000  1.0
  C  C574  1  0.10320000  0.90190000  0.70250000  1.0
  C  C575  1  0.09490000  0.88950000  0.79580000  1.0
  C  C576  1  0.21510000  0.09630000  0.75070000  1.0
  C  C577  1  0.15390000  0.01810000  0.80500000  1.0
  C  C578  1  0.17100000  0.05520000  0.79450000  1.0
  C  C579  1  0.27290000  0.18370000  0.87860000  1.0
  C  C580  1  0.19000000  0.41070000  0.73260000  1.0
  C  C581  1  0.39150000  0.57110000  0.54070000  1.0
  C  C582  1  0.34930000  0.58120000  0.54980000  1.0
  C  C583  1  0.20610000  0.36950000  0.73930000  1.0
  C  C584  1  0.31830000  0.57940000  0.51980000  1.0
  C  C585  1  0.20040000  0.48140000  0.71750000  1.0
  C  C586  1  0.27900000  0.58960000  0.52820000  1.0
  C  C587  1  0.23860000  0.69580000  0.44260000  1.0
  C  C588  1  0.15930000  0.48900000  0.71720000  1.0
  C  C589  1  0.14960000  0.41830000  0.73520000  1.0
  C  C590  1  0.21630000  0.65950000  0.51600000  1.0
  C  C591  1  0.21680000  0.44290000  0.72510000  1.0
  C  C592  1  0.26750000  0.60250000  0.56780000  1.0
  C  C593  1  0.26250000  0.70180000  0.47650000  1.0
  C  C594  1  0.33980000  0.59380000  0.59080000  1.0
  C  C595  1  0.13420000  0.45730000  0.72610000  1.0
  C  C596  1  0.14400000  0.58240000  0.65390000  1.0
  C  C597  1  0.25120000  0.68290000  0.51280000  1.0
  C  C598  1  0.16310000  0.65270000  0.56620000  1.0
  C  C599  1  0.16080000  0.54660000  0.67300000  1.0
  C  C600  1  0.16620000  0.60450000  0.62220000  1.0
  C  C601  1  0.14350000  0.52830000  0.70490000  1.0
  C  C602  1  0.14450000  0.63500000  0.60060000  1.0
  C  C603  1  0.20210000  0.64130000  0.55370000  1.0
  C  C604  1  0.22430000  0.61270000  0.57730000  1.0
  C  C605  1  0.29750000  0.60320000  0.59810000  1.0
  C  C606  1  0.20420000  0.59490000  0.61050000  1.0
  C  C607  1  0.24930000  0.71510000  0.40370000  1.0
  C  C608  1  0.19500000  0.65390000  0.48190000  1.0
  C  C609  1  0.20550000  0.67100000  0.44480000  1.0
  C  C610  1  0.12140000  0.77290000  0.31630000  1.0
  C  C611  1  0.69000000  0.08930000  0.26740000  1.0
  C  C612  1  0.89150000  0.92890000  0.45930000  1.0
  C  C613  1  0.84930000  0.91880000  0.45020000  1.0
  C  C614  1  0.70610000  0.13050000  0.26070000  1.0
  C  C615  1  0.81830000  0.92060000  0.48020000  1.0
  C  C616  1  0.70040000  0.01860000  0.28250000  1.0
  C  C617  1  0.77900000  0.91040000  0.47180000  1.0
  C  C618  1  0.73860000  0.80420000  0.55740000  1.0
  C  C619  1  0.65930000  0.01100000  0.28280000  1.0
  C  C620  1  0.64960000  0.08170000  0.26480000  1.0
  C  C621  1  0.71630000  0.84050000  0.48400000  1.0
  C  C622  1  0.71680000  0.05710000  0.27490000  1.0
  C  C623  1  0.76750000  0.89750000  0.43220000  1.0
  C  C624  1  0.76250000  0.79820000  0.52350000  1.0
  C  C625  1  0.83980000  0.90620000  0.40920000  1.0
  C  C626  1  0.63420000  0.04270000  0.27390000  1.0
  C  C627  1  0.64400000  0.91760000  0.34610000  1.0
  C  C628  1  0.75120000  0.81710000  0.48720000  1.0
  C  C629  1  0.66310000  0.84730000  0.43380000  1.0
  C  C630  1  0.66080000  0.95340000  0.32700000  1.0
  C  C631  1  0.66620000  0.89550000  0.37780000  1.0
  C  C632  1  0.64350000  0.97170000  0.29510000  1.0
  C  C633  1  0.64450000  0.86500000  0.39940000  1.0
  C  C634  1  0.70210000  0.85870000  0.44630000  1.0
  C  C635  1  0.72430000  0.88730000  0.42270000  1.0
  C  C636  1  0.79750000  0.89680000  0.40190000  1.0
  C  C637  1  0.70420000  0.90510000  0.38950000  1.0
  C  C638  1  0.74930000  0.78490000  0.59630000  1.0
  C  C639  1  0.69500000  0.84610000  0.51810000  1.0
  C  C640  1  0.70550000  0.82900000  0.55520000  1.0
  C  C641  1  0.62140000  0.72710000  0.68370000  1.0
  C  C642  1  0.31000000  0.58930000  0.23260000  1.0
  C  C643  1  0.10850000  0.42890000  0.04070000  1.0
  C  C644  1  0.15070000  0.41880000  0.04980000  1.0
  C  C645  1  0.29390000  0.63050000  0.23930000  1.0
  C  C646  1  0.18170000  0.42060000  0.01980000  1.0
  C  C647  1  0.29960000  0.51860000  0.21750000  1.0
  C  C648  1  0.22100000  0.41040000  0.02820000  1.0
  C  C649  1  0.26140000  0.30420000  0.94260000  1.0
  C  C650  1  0.34070000  0.51100000  0.21720000  1.0
  C  C651  1  0.35040000  0.58170000  0.23520000  1.0
  C  C652  1  0.28370000  0.34050000  0.01600000  1.0
  C  C653  1  0.28320000  0.55710000  0.22510000  1.0
  C  C654  1  0.23250000  0.39750000  0.06780000  1.0
  C  C655  1  0.23750000  0.29820000  0.97650000  1.0
  C  C656  1  0.16020000  0.40620000  0.09080000  1.0
  C  C657  1  0.36580000  0.54270000  0.22610000  1.0
  C  C658  1  0.35600000  0.41760000  0.15390000  1.0
  C  C659  1  0.24880000  0.31710000  0.01280000  1.0
  C  C660  1  0.33690000  0.34730000  0.06620000  1.0
  C  C661  1  0.33920000  0.45340000  0.17300000  1.0
  C  C662  1  0.33380000  0.39550000  0.12220000  1.0
  C  C663  1  0.35650000  0.47170000  0.20490000  1.0
  C  C664  1  0.35550000  0.36500000  0.10060000  1.0
  C  C665  1  0.29790000  0.35870000  0.05370000  1.0
  C  C666  1  0.27570000  0.38730000  0.07730000  1.0
  C  C667  1  0.20250000  0.39680000  0.09810000  1.0
  C  C668  1  0.29580000  0.40510000  0.11050000  1.0
  C  C669  1  0.25070000  0.28490000  0.90370000  1.0
  C  C670  1  0.30500000  0.34610000  0.98190000  1.0
  C  C671  1  0.29450000  0.32900000  0.94480000  1.0
  C  C672  1  0.37860000  0.22710000  0.81630000  1.0
  C  C673  1  0.81000000  0.91070000  0.76740000  1.0
  C  C674  1  0.60850000  0.07110000  0.95930000  1.0
  C  C675  1  0.65070000  0.08120000  0.95020000  1.0
  C  C676  1  0.79390000  0.86950000  0.76070000  1.0
  C  C677  1  0.68170000  0.07940000  0.98020000  1.0
  C  C678  1  0.79960000  0.98140000  0.78250000  1.0
  C  C679  1  0.72100000  0.08960000  0.97180000  1.0
  C  C680  1  0.76140000  0.19580000  0.05740000  1.0
  C  C681  1  0.84070000  0.98900000  0.78280000  1.0
  C  C682  1  0.85040000  0.91830000  0.76480000  1.0
  C  C683  1  0.78370000  0.15950000  0.98400000  1.0
  C  C684  1  0.78320000  0.94290000  0.77490000  1.0
  C  C685  1  0.73250000  0.10250000  0.93220000  1.0
  C  C686  1  0.73750000  0.20180000  0.02350000  1.0
  C  C687  1  0.66020000  0.09380000  0.90920000  1.0
  C  C688  1  0.86580000  0.95730000  0.77390000  1.0
  C  C689  1  0.85600000  0.08240000  0.84610000  1.0
  C  C690  1  0.74880000  0.18290000  0.98720000  1.0
  C  C691  1  0.83690000  0.15270000  0.93380000  1.0
  C  C692  1  0.83920000  0.04660000  0.82700000  1.0
  C  C693  1  0.83380000  0.10450000  0.87780000  1.0
  C  C694  1  0.85650000  0.02830000  0.79510000  1.0
  C  C695  1  0.85550000  0.13500000  0.89940000  1.0
  C  C696  1  0.79790000  0.14130000  0.94630000  1.0
  C  C697  1  0.77570000  0.11270000  0.92270000  1.0
  C  C698  1  0.70250000  0.10320000  0.90190000  1.0
  C  C699  1  0.79580000  0.09490000  0.88950000  1.0
  C  C700  1  0.75070000  0.21510000  0.09630000  1.0
  C  C701  1  0.80500000  0.15390000  0.01810000  1.0
  C  C702  1  0.79450000  0.17100000  0.05520000  1.0
  C  C703  1  0.87860000  0.27290000  0.18370000  1.0
  C  C704  1  0.73260000  0.19000000  0.41070000  1.0
  C  C705  1  0.54070000  0.39150000  0.57110000  1.0
  C  C706  1  0.54980000  0.34930000  0.58120000  1.0
  C  C707  1  0.73930000  0.20610000  0.36950000  1.0
  C  C708  1  0.51980000  0.31830000  0.57940000  1.0
  C  C709  1  0.71750000  0.20040000  0.48140000  1.0
  C  C710  1  0.52820000  0.27900000  0.58960000  1.0
  C  C711  1  0.44260000  0.23860000  0.69580000  1.0
  C  C712  1  0.71720000  0.15930000  0.48900000  1.0
  C  C713  1  0.73520000  0.14960000  0.41830000  1.0
  C  C714  1  0.51600000  0.21630000  0.65950000  1.0
  C  C715  1  0.72510000  0.21680000  0.44290000  1.0
  C  C716  1  0.56780000  0.26750000  0.60250000  1.0
  C  C717  1  0.47650000  0.26250000  0.70180000  1.0
  C  C718  1  0.59080000  0.33980000  0.59380000  1.0
  C  C719  1  0.72610000  0.13420000  0.45730000  1.0
  C  C720  1  0.65390000  0.14400000  0.58240000  1.0
  C  C721  1  0.51280000  0.25120000  0.68290000  1.0
  C  C722  1  0.56620000  0.16310000  0.65270000  1.0
  C  C723  1  0.67300000  0.16080000  0.54660000  1.0
  C  C724  1  0.62220000  0.16620000  0.60450000  1.0
  C  C725  1  0.70490000  0.14350000  0.52830000  1.0
  C  C726  1  0.60060000  0.14450000  0.63500000  1.0
  C  C727  1  0.55370000  0.20210000  0.64130000  1.0
  C  C728  1  0.57730000  0.22430000  0.61270000  1.0
  C  C729  1  0.59810000  0.29750000  0.60320000  1.0
  C  C730  1  0.61050000  0.20420000  0.59490000  1.0
  C  C731  1  0.40370000  0.24930000  0.71510000  1.0
  C  C732  1  0.48190000  0.19500000  0.65390000  1.0
  C  C733  1  0.44480000  0.20550000  0.67100000  1.0
  C  C734  1  0.31630000  0.12140000  0.77290000  1.0
  C  C735  1  0.26740000  0.69000000  0.08930000  1.0
  C  C736  1  0.45930000  0.89150000  0.92890000  1.0
  C  C737  1  0.45020000  0.84930000  0.91880000  1.0
  C  C738  1  0.26070000  0.70610000  0.13050000  1.0
  C  C739  1  0.48020000  0.81830000  0.92060000  1.0
  C  C740  1  0.28250000  0.70040000  0.01860000  1.0
  C  C741  1  0.47180000  0.77900000  0.91040000  1.0
  C  C742  1  0.55740000  0.73860000  0.80420000  1.0
  C  C743  1  0.28280000  0.65930000  0.01100000  1.0
  C  C744  1  0.26480000  0.64960000  0.08170000  1.0
  C  C745  1  0.48400000  0.71630000  0.84050000  1.0
  C  C746  1  0.27490000  0.71680000  0.05710000  1.0
  C  C747  1  0.43220000  0.76750000  0.89750000  1.0
  C  C748  1  0.52350000  0.76250000  0.79820000  1.0
  C  C749  1  0.40920000  0.83980000  0.90620000  1.0
  C  C750  1  0.27390000  0.63420000  0.04270000  1.0
  C  C751  1  0.34610000  0.64400000  0.91760000  1.0
  C  C752  1  0.48720000  0.75120000  0.81710000  1.0
  C  C753  1  0.43380000  0.66310000  0.84730000  1.0
  C  C754  1  0.32700000  0.66080000  0.95340000  1.0
  C  C755  1  0.37780000  0.66620000  0.89550000  1.0
  C  C756  1  0.29510000  0.64350000  0.97170000  1.0
  C  C757  1  0.39940000  0.64450000  0.86500000  1.0
  C  C758  1  0.44630000  0.70210000  0.85870000  1.0
  C  C759  1  0.42270000  0.72430000  0.88730000  1.0
  C  C760  1  0.40190000  0.79750000  0.89680000  1.0
  C  C761  1  0.38950000  0.70420000  0.90510000  1.0
  C  C762  1  0.59630000  0.74930000  0.78490000  1.0
  C  C763  1  0.51810000  0.69500000  0.84610000  1.0
  C  C764  1  0.55520000  0.70550000  0.82900000  1.0
  C  C765  1  0.68370000  0.62140000  0.72710000  1.0
  C  C766  1  0.23260000  0.31000000  0.58930000  1.0
  C  C767  1  0.04070000  0.10850000  0.42890000  1.0
  C  C768  1  0.04980000  0.15070000  0.41880000  1.0
  C  C769  1  0.23930000  0.29390000  0.63050000  1.0
  C  C770  1  0.01980000  0.18170000  0.42060000  1.0
  C  C771  1  0.21750000  0.29960000  0.51860000  1.0
  C  C772  1  0.02820000  0.22100000  0.41040000  1.0
  C  C773  1  0.94260000  0.26140000  0.30420000  1.0
  C  C774  1  0.21720000  0.34070000  0.51100000  1.0
  C  C775  1  0.23520000  0.35040000  0.58170000  1.0
  C  C776  1  0.01600000  0.28370000  0.34050000  1.0
  C  C777  1  0.22510000  0.28320000  0.55710000  1.0
  C  C778  1  0.06780000  0.23250000  0.39750000  1.0
  C  C779  1  0.97650000  0.23750000  0.29820000  1.0
  C  C780  1  0.09080000  0.16020000  0.40620000  1.0
  C  C781  1  0.22610000  0.36580000  0.54270000  1.0
  C  C782  1  0.15390000  0.35600000  0.41760000  1.0
  C  C783  1  0.01280000  0.24880000  0.31710000  1.0
  C  C784  1  0.06620000  0.33690000  0.34730000  1.0
  C  C785  1  0.17300000  0.33920000  0.45340000  1.0
  C  C786  1  0.12220000  0.33380000  0.39550000  1.0
  C  C787  1  0.20490000  0.35650000  0.47170000  1.0
  C  C788  1  0.10060000  0.35550000  0.36500000  1.0
  C  C789  1  0.05370000  0.29790000  0.35870000  1.0
  C  C790  1  0.07730000  0.27570000  0.38730000  1.0
  C  C791  1  0.09810000  0.20250000  0.39680000  1.0
  C  C792  1  0.11050000  0.29580000  0.40510000  1.0
  C  C793  1  0.90370000  0.25070000  0.28490000  1.0
  C  C794  1  0.98190000  0.30500000  0.34610000  1.0
  C  C795  1  0.94480000  0.29450000  0.32900000  1.0
  C  C796  1  0.81630000  0.37860000  0.22710000  1.0
  C  C797  1  0.76740000  0.81000000  0.91070000  1.0
  C  C798  1  0.95930000  0.60850000  0.07110000  1.0
  C  C799  1  0.95020000  0.65070000  0.08120000  1.0
  C  C800  1  0.76070000  0.79390000  0.86950000  1.0
  C  C801  1  0.98020000  0.68170000  0.07940000  1.0
  C  C802  1  0.78250000  0.79960000  0.98140000  1.0
  C  C803  1  0.97180000  0.72100000  0.08960000  1.0
  C  C804  1  0.05740000  0.76140000  0.19580000  1.0
  C  C805  1  0.78280000  0.84070000  0.98900000  1.0
  C  C806  1  0.76480000  0.85040000  0.91830000  1.0
  C  C807  1  0.98400000  0.78370000  0.15950000  1.0
  C  C808  1  0.77490000  0.78320000  0.94290000  1.0
  C  C809  1  0.93220000  0.73250000  0.10250000  1.0
  C  C810  1  0.02350000  0.73750000  0.20180000  1.0
  C  C811  1  0.90920000  0.66020000  0.09380000  1.0
  C  C812  1  0.77390000  0.86580000  0.95730000  1.0
  C  C813  1  0.84610000  0.85600000  0.08240000  1.0
  C  C814  1  0.98720000  0.74880000  0.18290000  1.0
  C  C815  1  0.93380000  0.83690000  0.15270000  1.0
  C  C816  1  0.82700000  0.83920000  0.04660000  1.0
  C  C817  1  0.87780000  0.83380000  0.10450000  1.0
  C  C818  1  0.79510000  0.85650000  0.02830000  1.0
  C  C819  1  0.89940000  0.85550000  0.13500000  1.0
  C  C820  1  0.94630000  0.79790000  0.14130000  1.0
  C  C821  1  0.92270000  0.77570000  0.11270000  1.0
  C  C822  1  0.90190000  0.70250000  0.10320000  1.0
  C  C823  1  0.88950000  0.79580000  0.09490000  1.0
  C  C824  1  0.09630000  0.75070000  0.21510000  1.0
  C  C825  1  0.01810000  0.80500000  0.15390000  1.0
  C  C826  1  0.05520000  0.79450000  0.17100000  1.0
  C  C827  1  0.18370000  0.87860000  0.27290000  1.0
  C  C828  1  0.98260000  0.16070000  0.56000000  1.0
  C  C829  1  0.79070000  0.32110000  0.35850000  1.0
  C  C830  1  0.79980000  0.33120000  0.40070000  1.0
  C  C831  1  0.98930000  0.11950000  0.54390000  1.0
  C  C832  1  0.76980000  0.32940000  0.43170000  1.0
  C  C833  1  0.96750000  0.23140000  0.54960000  1.0
  C  C834  1  0.77820000  0.33960000  0.47100000  1.0
  C  C835  1  0.69260000  0.44580000  0.51140000  1.0
  C  C836  1  0.96720000  0.23900000  0.59070000  1.0
  C  C837  1  0.98520000  0.16830000  0.60040000  1.0
  C  C838  1  0.76600000  0.40950000  0.53370000  1.0
  C  C839  1  0.97510000  0.19290000  0.53320000  1.0
  C  C840  1  0.81780000  0.35250000  0.48250000  1.0
  C  C841  1  0.72650000  0.45180000  0.48750000  1.0
  C  C842  1  0.84080000  0.34380000  0.41020000  1.0
  C  C843  1  0.97610000  0.20730000  0.61580000  1.0
  C  C844  1  0.90390000  0.33240000  0.60600000  1.0
  C  C845  1  0.76280000  0.43290000  0.49880000  1.0
  C  C846  1  0.81620000  0.40270000  0.58690000  1.0
  C  C847  1  0.92300000  0.29660000  0.58920000  1.0
  C  C848  1  0.87220000  0.35450000  0.58380000  1.0
  C  C849  1  0.95490000  0.27830000  0.60650000  1.0
  C  C850  1  0.85060000  0.38500000  0.60550000  1.0
  C  C851  1  0.80370000  0.39130000  0.54790000  1.0
  C  C852  1  0.82730000  0.36270000  0.52570000  1.0
  C  C853  1  0.84810000  0.35320000  0.45250000  1.0
  C  C854  1  0.86050000  0.34490000  0.54580000  1.0
  C  C855  1  0.65370000  0.46510000  0.50070000  1.0
  C  C856  1  0.73190000  0.40390000  0.55500000  1.0
  C  C857  1  0.69480000  0.42100000  0.54450000  1.0
  C  C858  1  0.56630000  0.52290000  0.62860000  1.0
  C  C859  1  0.51740000  0.83930000  0.06000000  1.0
  C  C860  1  0.70930000  0.67890000  0.85850000  1.0
  C  C861  1  0.70020000  0.66880000  0.90070000  1.0
  C  C862  1  0.51070000  0.88050000  0.04390000  1.0
  C  C863  1  0.73020000  0.67060000  0.93170000  1.0
  C  C864  1  0.53250000  0.76860000  0.04960000  1.0
  C  C865  1  0.72180000  0.66040000  0.97100000  1.0
  C  C866  1  0.80740000  0.55420000  0.01140000  1.0
  C  C867  1  0.53280000  0.76100000  0.09070000  1.0
  C  C868  1  0.51480000  0.83170000  0.10040000  1.0
  C  C869  1  0.73400000  0.59050000  0.03370000  1.0
  C  C870  1  0.52490000  0.80710000  0.03320000  1.0
  C  C871  1  0.68220000  0.64750000  0.98250000  1.0
  C  C872  1  0.77350000  0.54820000  0.98750000  1.0
  C  C873  1  0.65920000  0.65620000  0.91020000  1.0
  C  C874  1  0.52390000  0.79270000  0.11580000  1.0
  C  C875  1  0.59610000  0.66760000  0.10600000  1.0
  C  C876  1  0.73720000  0.56710000  0.99880000  1.0
  C  C877  1  0.68380000  0.59730000  0.08690000  1.0
  C  C878  1  0.57700000  0.70340000  0.08920000  1.0
  C  C879  1  0.62780000  0.64550000  0.08380000  1.0
  C  C880  1  0.54510000  0.72170000  0.10650000  1.0
  C  C881  1  0.64940000  0.61500000  0.10550000  1.0
  C  C882  1  0.69630000  0.60870000  0.04790000  1.0
  C  C883  1  0.67270000  0.63730000  0.02570000  1.0
  C  C884  1  0.65190000  0.64680000  0.95250000  1.0
  C  C885  1  0.63950000  0.65510000  0.04580000  1.0
  C  C886  1  0.84630000  0.53490000  0.00070000  1.0
  C  C887  1  0.76810000  0.59610000  0.05500000  1.0
  C  C888  1  0.80520000  0.57900000  0.04450000  1.0
  C  C889  1  0.93370000  0.47710000  0.12860000  1.0
  C  C890  1  0.48260000  0.33930000  0.44000000  1.0
  C  C891  1  0.29070000  0.17890000  0.64150000  1.0
  C  C892  1  0.29980000  0.16880000  0.59930000  1.0
  C  C893  1  0.48930000  0.38050000  0.45610000  1.0
  C  C894  1  0.26980000  0.17060000  0.56830000  1.0
  C  C895  1  0.46750000  0.26860000  0.45040000  1.0
  C  C896  1  0.27820000  0.16040000  0.52900000  1.0
  C  C897  1  0.19260000  0.05420000  0.48860000  1.0
  C  C898  1  0.46720000  0.26100000  0.40930000  1.0
  C  C899  1  0.48520000  0.33170000  0.39960000  1.0
  C  C900  1  0.26600000  0.09050000  0.46630000  1.0
  C  C901  1  0.47510000  0.30710000  0.46680000  1.0
  C  C902  1  0.31780000  0.14750000  0.51750000  1.0
  C  C903  1  0.22650000  0.04820000  0.51250000  1.0
  C  C904  1  0.34080000  0.15620000  0.58980000  1.0
  C  C905  1  0.47610000  0.29270000  0.38420000  1.0
  C  C906  1  0.40390000  0.16760000  0.39400000  1.0
  C  C907  1  0.26280000  0.06710000  0.50120000  1.0
  C  C908  1  0.31620000  0.09730000  0.41310000  1.0
  C  C909  1  0.42300000  0.20340000  0.41080000  1.0
  C  C910  1  0.37220000  0.14550000  0.41620000  1.0
  C  C911  1  0.45490000  0.22170000  0.39350000  1.0
  C  C912  1  0.35060000  0.11500000  0.39450000  1.0
  C  C913  1  0.30370000  0.10870000  0.45210000  1.0
  C  C914  1  0.32730000  0.13730000  0.47430000  1.0
  C  C915  1  0.34810000  0.14680000  0.54750000  1.0
  C  C916  1  0.36050000  0.15510000  0.45420000  1.0
  C  C917  1  0.15370000  0.03490000  0.49930000  1.0
  C  C918  1  0.23190000  0.09610000  0.44500000  1.0
  C  C919  1  0.19480000  0.07900000  0.45550000  1.0
  C  C920  1  0.06630000  0.97710000  0.37140000  1.0
  C  C921  1  0.01740000  0.66070000  0.94000000  1.0
  C  C922  1  0.20930000  0.82110000  0.14150000  1.0
  C  C923  1  0.20020000  0.83120000  0.09930000  1.0
  C  C924  1  0.01070000  0.61950000  0.95610000  1.0
  C  C925  1  0.23020000  0.82940000  0.06830000  1.0
  C  C926  1  0.03250000  0.73140000  0.95040000  1.0
  C  C927  1  0.22180000  0.83960000  0.02900000  1.0
  C  C928  1  0.30740000  0.94580000  0.98860000  1.0
  C  C929  1  0.03280000  0.73900000  0.90930000  1.0
  C  C930  1  0.01480000  0.66830000  0.89960000  1.0
  C  C931  1  0.23400000  0.90950000  0.96630000  1.0
  C  C932  1  0.02490000  0.69290000  0.96680000  1.0
  C  C933  1  0.18220000  0.85250000  0.01750000  1.0
  C  C934  1  0.27350000  0.95180000  0.01250000  1.0
  C  C935  1  0.15920000  0.84380000  0.08980000  1.0
  C  C936  1  0.02390000  0.70730000  0.88420000  1.0
  C  C937  1  0.09610000  0.83240000  0.89400000  1.0
  C  C938  1  0.23720000  0.93290000  0.00120000  1.0
  C  C939  1  0.18380000  0.90270000  0.91310000  1.0
  C  C940  1  0.07700000  0.79660000  0.91080000  1.0
  C  C941  1  0.12780000  0.85450000  0.91620000  1.0
  C  C942  1  0.04510000  0.77830000  0.89350000  1.0
  C  C943  1  0.14940000  0.88500000  0.89450000  1.0
  C  C944  1  0.19630000  0.89130000  0.95210000  1.0
  C  C945  1  0.17270000  0.86270000  0.97430000  1.0
  C  C946  1  0.15190000  0.85320000  0.04750000  1.0
  C  C947  1  0.13950000  0.84490000  0.95420000  1.0
  C  C948  1  0.34630000  0.96510000  0.99930000  1.0
  C  C949  1  0.26810000  0.90390000  0.94500000  1.0
  C  C950  1  0.30520000  0.92100000  0.95550000  1.0
  C  C951  1  0.43370000  0.02290000  0.87140000  1.0
  C  C952  1  0.66070000  0.94000000  0.01740000  1.0
  C  C953  1  0.82110000  0.14150000  0.20930000  1.0
  C  C954  1  0.83120000  0.09930000  0.20020000  1.0
  C  C955  1  0.61950000  0.95610000  0.01070000  1.0
  C  C956  1  0.82940000  0.06830000  0.23020000  1.0
  C  C957  1  0.73140000  0.95040000  0.03250000  1.0
  C  C958  1  0.83960000  0.02900000  0.22180000  1.0
  C  C959  1  0.94580000  0.98860000  0.30740000  1.0
  C  C960  1  0.73900000  0.90930000  0.03280000  1.0
  C  C961  1  0.66830000  0.89960000  0.01480000  1.0
  C  C962  1  0.90950000  0.96630000  0.23400000  1.0
  C  C963  1  0.69290000  0.96680000  0.02490000  1.0
  C  C964  1  0.85250000  0.01750000  0.18220000  1.0
  C  C965  1  0.95180000  0.01250000  0.27350000  1.0
  C  C966  1  0.84380000  0.08980000  0.15920000  1.0
  C  C967  1  0.70730000  0.88420000  0.02390000  1.0
  C  C968  1  0.83240000  0.89400000  0.09610000  1.0
  C  C969  1  0.93290000  0.00120000  0.23720000  1.0
  C  C970  1  0.90270000  0.91310000  0.18380000  1.0
  C  C971  1  0.79660000  0.91080000  0.07700000  1.0
  C  C972  1  0.85450000  0.91620000  0.12780000  1.0
  C  C973  1  0.77830000  0.89350000  0.04510000  1.0
  C  C974  1  0.88500000  0.89450000  0.14940000  1.0
  C  C975  1  0.89130000  0.95210000  0.19630000  1.0
  C  C976  1  0.86270000  0.97430000  0.17270000  1.0
  C  C977  1  0.85320000  0.04750000  0.15190000  1.0
  C  C978  1  0.84490000  0.95420000  0.13950000  1.0
  C  C979  1  0.96510000  0.99930000  0.34630000  1.0
  C  C980  1  0.90390000  0.94500000  0.26810000  1.0
  C  C981  1  0.92100000  0.95550000  0.30520000  1.0
  C  C982  1  0.02290000  0.87140000  0.43370000  1.0
  C  C983  1  0.33930000  0.44000000  0.48260000  1.0
  C  C984  1  0.17890000  0.64150000  0.29070000  1.0
  C  C985  1  0.16880000  0.59930000  0.29980000  1.0
  C  C986  1  0.38050000  0.45610000  0.48930000  1.0
  C  C987  1  0.17060000  0.56830000  0.26980000  1.0
  C  C988  1  0.26860000  0.45040000  0.46750000  1.0
  C  C989  1  0.16040000  0.52900000  0.27820000  1.0
  C  C990  1  0.05420000  0.48860000  0.19260000  1.0
  C  C991  1  0.26100000  0.40930000  0.46720000  1.0
  C  C992  1  0.33170000  0.39960000  0.48520000  1.0
  C  C993  1  0.09050000  0.46630000  0.26600000  1.0
  C  C994  1  0.30710000  0.46680000  0.47510000  1.0
  C  C995  1  0.14750000  0.51750000  0.31780000  1.0
  C  C996  1  0.04820000  0.51250000  0.22650000  1.0
  C  C997  1  0.15620000  0.58980000  0.34080000  1.0
  C  C998  1  0.29270000  0.38420000  0.47610000  1.0
  C  C999  1  0.16760000  0.39400000  0.40390000  1.0
  C  C1000  1  0.06710000  0.50120000  0.26280000  1.0
  C  C1001  1  0.09730000  0.41310000  0.31620000  1.0
  C  C1002  1  0.20340000  0.41080000  0.42300000  1.0
  C  C1003  1  0.14550000  0.41620000  0.37220000  1.0
  C  C1004  1  0.22170000  0.39350000  0.45490000  1.0
  C  C1005  1  0.11500000  0.39450000  0.35060000  1.0
  C  C1006  1  0.10870000  0.45210000  0.30370000  1.0
  C  C1007  1  0.13730000  0.47430000  0.32730000  1.0
  C  C1008  1  0.14680000  0.54750000  0.34810000  1.0
  C  C1009  1  0.15510000  0.45420000  0.36050000  1.0
  C  C1010  1  0.03490000  0.49930000  0.15370000  1.0
  C  C1011  1  0.09610000  0.44500000  0.23190000  1.0
  C  C1012  1  0.07900000  0.45550000  0.19480000  1.0
  C  C1013  1  0.97710000  0.37140000  0.06630000  1.0
  C  C1014  1  0.83930000  0.06000000  0.51740000  1.0
  C  C1015  1  0.67890000  0.85850000  0.70930000  1.0
  C  C1016  1  0.66880000  0.90070000  0.70020000  1.0
  C  C1017  1  0.88050000  0.04390000  0.51070000  1.0
  C  C1018  1  0.67060000  0.93170000  0.73020000  1.0
  C  C1019  1  0.76860000  0.04960000  0.53250000  1.0
  C  C1020  1  0.66040000  0.97100000  0.72180000  1.0
  C  C1021  1  0.55420000  0.01140000  0.80740000  1.0
  C  C1022  1  0.76100000  0.09070000  0.53280000  1.0
  C  C1023  1  0.83170000  0.10040000  0.51480000  1.0
  C  C1024  1  0.59050000  0.03370000  0.73400000  1.0
  C  C1025  1  0.80710000  0.03320000  0.52490000  1.0
  C  C1026  1  0.64750000  0.98250000  0.68220000  1.0
  C  C1027  1  0.54820000  0.98750000  0.77350000  1.0
  C  C1028  1  0.65620000  0.91020000  0.65920000  1.0
  C  C1029  1  0.79270000  0.11580000  0.52390000  1.0
  C  C1030  1  0.66760000  0.10600000  0.59610000  1.0
  C  C1031  1  0.56710000  0.99880000  0.73720000  1.0
  C  C1032  1  0.59730000  0.08690000  0.68380000  1.0
  C  C1033  1  0.70340000  0.08920000  0.57700000  1.0
  C  C1034  1  0.64550000  0.08380000  0.62780000  1.0
  C  C1035  1  0.72170000  0.10650000  0.54510000  1.0
  C  C1036  1  0.61500000  0.10550000  0.64940000  1.0
  C  C1037  1  0.60870000  0.04790000  0.69630000  1.0
  C  C1038  1  0.63730000  0.02570000  0.67270000  1.0
  C  C1039  1  0.64680000  0.95250000  0.65190000  1.0
  C  C1040  1  0.65510000  0.04580000  0.63950000  1.0
  C  C1041  1  0.53490000  0.00070000  0.84630000  1.0
  C  C1042  1  0.59610000  0.05500000  0.76810000  1.0
  C  C1043  1  0.57900000  0.04450000  0.80520000  1.0
  C  C1044  1  0.47710000  0.12860000  0.93370000  1.0
  C  C1045  1  0.16070000  0.56000000  0.98260000  1.0
  C  C1046  1  0.32110000  0.35850000  0.79070000  1.0
  C  C1047  1  0.33120000  0.40070000  0.79980000  1.0
  C  C1048  1  0.11950000  0.54390000  0.98930000  1.0
  C  C1049  1  0.32940000  0.43170000  0.76980000  1.0
  C  C1050  1  0.23140000  0.54960000  0.96750000  1.0
  C  C1051  1  0.33960000  0.47100000  0.77820000  1.0
  C  C1052  1  0.44580000  0.51140000  0.69260000  1.0
  C  C1053  1  0.23900000  0.59070000  0.96720000  1.0
  C  C1054  1  0.16830000  0.60040000  0.98520000  1.0
  C  C1055  1  0.40950000  0.53370000  0.76600000  1.0
  C  C1056  1  0.19290000  0.53320000  0.97510000  1.0
  C  C1057  1  0.35250000  0.48250000  0.81780000  1.0
  C  C1058  1  0.45180000  0.48750000  0.72650000  1.0
  C  C1059  1  0.34380000  0.41020000  0.84080000  1.0
  C  C1060  1  0.20730000  0.61580000  0.97610000  1.0
  C  C1061  1  0.33240000  0.60600000  0.90390000  1.0
  C  C1062  1  0.43290000  0.49880000  0.76280000  1.0
  C  C1063  1  0.40270000  0.58690000  0.81620000  1.0
  C  C1064  1  0.29660000  0.58920000  0.92300000  1.0
  C  C1065  1  0.35450000  0.58380000  0.87220000  1.0
  C  C1066  1  0.27830000  0.60650000  0.95490000  1.0
  C  C1067  1  0.38500000  0.60550000  0.85060000  1.0
  C  C1068  1  0.39130000  0.54790000  0.80370000  1.0
  C  C1069  1  0.36270000  0.52570000  0.82730000  1.0
  C  C1070  1  0.35320000  0.45250000  0.84810000  1.0
  C  C1071  1  0.34490000  0.54580000  0.86050000  1.0
  C  C1072  1  0.46510000  0.50070000  0.65370000  1.0
  C  C1073  1  0.40390000  0.55500000  0.73190000  1.0
  C  C1074  1  0.42100000  0.54450000  0.69480000  1.0
  C  C1075  1  0.52290000  0.62860000  0.56630000  1.0
  C  C1076  1  0.44000000  0.48260000  0.33930000  1.0
  C  C1077  1  0.64150000  0.29070000  0.17890000  1.0
  C  C1078  1  0.59930000  0.29980000  0.16880000  1.0
  C  C1079  1  0.45610000  0.48930000  0.38050000  1.0
  C  C1080  1  0.56830000  0.26980000  0.17060000  1.0
  C  C1081  1  0.45040000  0.46750000  0.26860000  1.0
  C  C1082  1  0.52900000  0.27820000  0.16040000  1.0
  C  C1083  1  0.48860000  0.19260000  0.05420000  1.0
  C  C1084  1  0.40930000  0.46720000  0.26100000  1.0
  C  C1085  1  0.39960000  0.48520000  0.33170000  1.0
  C  C1086  1  0.46630000  0.26600000  0.09050000  1.0
  C  C1087  1  0.46680000  0.47510000  0.30710000  1.0
  C  C1088  1  0.51750000  0.31780000  0.14750000  1.0
  C  C1089  1  0.51250000  0.22650000  0.04820000  1.0
  C  C1090  1  0.58980000  0.34080000  0.15620000  1.0
  C  C1091  1  0.38420000  0.47610000  0.29270000  1.0
  C  C1092  1  0.39400000  0.40390000  0.16760000  1.0
  C  C1093  1  0.50120000  0.26280000  0.06710000  1.0
  C  C1094  1  0.41310000  0.31620000  0.09730000  1.0
  C  C1095  1  0.41080000  0.42300000  0.20340000  1.0
  C  C1096  1  0.41620000  0.37220000  0.14550000  1.0
  C  C1097  1  0.39350000  0.45490000  0.22170000  1.0
  C  C1098  1  0.39450000  0.35060000  0.11500000  1.0
  C  C1099  1  0.45210000  0.30370000  0.10870000  1.0
  C  C1100  1  0.47430000  0.32730000  0.13730000  1.0
  C  C1101  1  0.54750000  0.34810000  0.14680000  1.0
  C  C1102  1  0.45420000  0.36050000  0.15510000  1.0
  C  C1103  1  0.49930000  0.15370000  0.03490000  1.0
  C  C1104  1  0.44500000  0.23190000  0.09610000  1.0
  C  C1105  1  0.45550000  0.19480000  0.07900000  1.0
  C  C1106  1  0.37140000  0.06630000  0.97710000  1.0
  C  C1107  1  0.94000000  0.01740000  0.66070000  1.0
  C  C1108  1  0.14150000  0.20930000  0.82110000  1.0
  C  C1109  1  0.09930000  0.20020000  0.83120000  1.0
  C  C1110  1  0.95610000  0.01070000  0.61950000  1.0
  C  C1111  1  0.06830000  0.23020000  0.82940000  1.0
  C  C1112  1  0.95040000  0.03250000  0.73140000  1.0
  C  C1113  1  0.02900000  0.22180000  0.83960000  1.0
  C  C1114  1  0.98860000  0.30740000  0.94580000  1.0
  C  C1115  1  0.90930000  0.03280000  0.73900000  1.0
  C  C1116  1  0.89960000  0.01480000  0.66830000  1.0
  C  C1117  1  0.96630000  0.23400000  0.90950000  1.0
  C  C1118  1  0.96680000  0.02490000  0.69290000  1.0
  C  C1119  1  0.01750000  0.18220000  0.85250000  1.0
  C  C1120  1  0.01250000  0.27350000  0.95180000  1.0
  C  C1121  1  0.08980000  0.15920000  0.84380000  1.0
  C  C1122  1  0.88420000  0.02390000  0.70730000  1.0
  C  C1123  1  0.89400000  0.09610000  0.83240000  1.0
  C  C1124  1  0.00120000  0.23720000  0.93290000  1.0
  C  C1125  1  0.91310000  0.18380000  0.90270000  1.0
  C  C1126  1  0.91080000  0.07700000  0.79660000  1.0
  C  C1127  1  0.91620000  0.12780000  0.85450000  1.0
  C  C1128  1  0.89350000  0.04510000  0.77830000  1.0
  C  C1129  1  0.89450000  0.14940000  0.88500000  1.0
  C  C1130  1  0.95210000  0.19630000  0.89130000  1.0
  C  C1131  1  0.97430000  0.17270000  0.86270000  1.0
  C  C1132  1  0.04750000  0.15190000  0.85320000  1.0
  C  C1133  1  0.95420000  0.13950000  0.84490000  1.0
  C  C1134  1  0.99930000  0.34630000  0.96510000  1.0
  C  C1135  1  0.94500000  0.26810000  0.90390000  1.0
  C  C1136  1  0.95550000  0.30520000  0.92100000  1.0
  C  C1137  1  0.87140000  0.43370000  0.02290000  1.0
  C  C1138  1  0.56000000  0.98260000  0.16070000  1.0
  C  C1139  1  0.35850000  0.79070000  0.32110000  1.0
  C  C1140  1  0.40070000  0.79980000  0.33120000  1.0
  C  C1141  1  0.54390000  0.98930000  0.11950000  1.0
  C  C1142  1  0.43170000  0.76980000  0.32940000  1.0
  C  C1143  1  0.54960000  0.96750000  0.23140000  1.0
  C  C1144  1  0.47100000  0.77820000  0.33960000  1.0
  C  C1145  1  0.51140000  0.69260000  0.44580000  1.0
  C  C1146  1  0.59070000  0.96720000  0.23900000  1.0
  C  C1147  1  0.60040000  0.98520000  0.16830000  1.0
  C  C1148  1  0.53370000  0.76600000  0.40950000  1.0
  C  C1149  1  0.53320000  0.97510000  0.19290000  1.0
  C  C1150  1  0.48250000  0.81780000  0.35250000  1.0
  C  C1151  1  0.48750000  0.72650000  0.45180000  1.0
  C  C1152  1  0.41020000  0.84080000  0.34380000  1.0
  C  C1153  1  0.61580000  0.97610000  0.20730000  1.0
  C  C1154  1  0.60600000  0.90390000  0.33240000  1.0
  C  C1155  1  0.49880000  0.76280000  0.43290000  1.0
  C  C1156  1  0.58690000  0.81620000  0.40270000  1.0
  C  C1157  1  0.58920000  0.92300000  0.29660000  1.0
  C  C1158  1  0.58380000  0.87220000  0.35450000  1.0
  C  C1159  1  0.60650000  0.95490000  0.27830000  1.0
  C  C1160  1  0.60550000  0.85060000  0.38500000  1.0
  C  C1161  1  0.54790000  0.80370000  0.39130000  1.0
  C  C1162  1  0.52570000  0.82730000  0.36270000  1.0
  C  C1163  1  0.45250000  0.84810000  0.35320000  1.0
  C  C1164  1  0.54580000  0.86050000  0.34490000  1.0
  C  C1165  1  0.50070000  0.65370000  0.46510000  1.0
  C  C1166  1  0.55500000  0.73190000  0.40390000  1.0
  C  C1167  1  0.54450000  0.69480000  0.42100000  1.0
  C  C1168  1  0.62860000  0.56630000  0.52290000  1.0
  C  C1169  1  0.06000000  0.51740000  0.83930000  1.0
  C  C1170  1  0.85850000  0.70930000  0.67890000  1.0
  C  C1171  1  0.90070000  0.70020000  0.66880000  1.0
  C  C1172  1  0.04390000  0.51070000  0.88050000  1.0
  C  C1173  1  0.93170000  0.73020000  0.67060000  1.0
  C  C1174  1  0.04960000  0.53250000  0.76860000  1.0
  C  C1175  1  0.97100000  0.72180000  0.66040000  1.0
  C  C1176  1  0.01140000  0.80740000  0.55420000  1.0
  C  C1177  1  0.09070000  0.53280000  0.76100000  1.0
  C  C1178  1  0.10040000  0.51480000  0.83170000  1.0
  C  C1179  1  0.03370000  0.73400000  0.59050000  1.0
  C  C1180  1  0.03320000  0.52490000  0.80710000  1.0
  C  C1181  1  0.98250000  0.68220000  0.64750000  1.0
  C  C1182  1  0.98750000  0.77350000  0.54820000  1.0
  C  C1183  1  0.91020000  0.65920000  0.65620000  1.0
  C  C1184  1  0.11580000  0.52390000  0.79270000  1.0
  C  C1185  1  0.10600000  0.59610000  0.66760000  1.0
  C  C1186  1  0.99880000  0.73720000  0.56710000  1.0
  C  C1187  1  0.08690000  0.68380000  0.59730000  1.0
  C  C1188  1  0.08920000  0.57700000  0.70340000  1.0
  C  C1189  1  0.08380000  0.62780000  0.64550000  1.0
  C  C1190  1  0.10650000  0.54510000  0.72170000  1.0
  C  C1191  1  0.10550000  0.64940000  0.61500000  1.0
  C  C1192  1  0.04790000  0.69630000  0.60870000  1.0
  C  C1193  1  0.02570000  0.67270000  0.63730000  1.0
  C  C1194  1  0.95250000  0.65190000  0.64680000  1.0
  C  C1195  1  0.04580000  0.63950000  0.65510000  1.0
  C  C1196  1  0.00070000  0.84630000  0.53490000  1.0
  C  C1197  1  0.05500000  0.76810000  0.59610000  1.0
  C  C1198  1  0.04450000  0.80520000  0.57900000  1.0
  C  C1199  1  0.12860000  0.93370000  0.47710000  1.0
  O  O1200  1  0.75655000  0.32426000  0.27161000  1.0
  O  O1201  1  0.70346000  0.27741000  0.24594000  1.0
  O  O1202  1  0.56984000  0.56733000  0.41945000  1.0
  O  O1203  1  0.56378000  0.50265000  0.39696000  1.0
  O  O1204  1  0.36220000  0.72367000  0.23978000  1.0
  O  O1205  1  0.34513000  0.75945000  0.18441000  1.0
  O  O1206  1  0.74650000  0.33150000  0.14490000  1.0
  O  O1207  1  0.68160000  0.33563000  0.31600000  1.0
  O  O1208  1  0.70510000  0.37212000  0.22720000  1.0
  O  O1209  1  0.73950000  0.40176000  0.28000000  1.0
  O  O1210  1  0.79510000  0.27970000  0.12980000  1.0
  O  O1211  1  0.74345000  0.67574000  0.77161000  1.0
  O  O1212  1  0.79654000  0.72259000  0.74594000  1.0
  O  O1213  1  0.93016000  0.43267000  0.91945000  1.0
  O  O1214  1  0.93622000  0.49735000  0.89696000  1.0
  O  O1215  1  0.13780000  0.27633000  0.73978000  1.0
  O  O1216  1  0.15487000  0.24055000  0.68441000  1.0
  O  O1217  1  0.75350000  0.66850000  0.64490000  1.0
  O  O1218  1  0.81840000  0.66437000  0.81600000  1.0
  O  O1219  1  0.79490000  0.62788000  0.72720000  1.0
  O  O1220  1  0.76050000  0.59824000  0.78000000  1.0
  O  O1221  1  0.70490000  0.72030000  0.62980000  1.0
  O  O1222  1  0.24345000  0.82426000  0.22839000  1.0
  O  O1223  1  0.29654000  0.77741000  0.25406000  1.0
  O  O1224  1  0.43016000  0.06733000  0.08055000  1.0
  O  O1225  1  0.43622000  0.00265000  0.10304000  1.0
  O  O1226  1  0.63780000  0.22367000  0.26022000  1.0
  O  O1227  1  0.65487000  0.25945000  0.31559000  1.0
  O  O1228  1  0.25350000  0.83150000  0.35510000  1.0
  O  O1229  1  0.31840000  0.83563000  0.18400000  1.0
  O  O1230  1  0.29490000  0.87212000  0.27280000  1.0
  O  O1231  1  0.26050000  0.90176000  0.22000000  1.0
  O  O1232  1  0.20490000  0.77970000  0.37020000  1.0
  O  O1233  1  0.25655000  0.17574000  0.72839000  1.0
  O  O1234  1  0.20346000  0.22259000  0.75406000  1.0
  O  O1235  1  0.06984000  0.93267000  0.58055000  1.0
  O  O1236  1  0.06378000  0.99735000  0.60304000  1.0
  O  O1237  1  0.86220000  0.77633000  0.76022000  1.0
  O  O1238  1  0.84513000  0.74055000  0.81559000  1.0
  O  O1239  1  0.24650000  0.16850000  0.85510000  1.0
  O  O1240  1  0.18160000  0.16437000  0.68400000  1.0
  O  O1241  1  0.20510000  0.12788000  0.77280000  1.0
  O  O1242  1  0.23950000  0.09824000  0.72000000  1.0
  O  O1243  1  0.29510000  0.22030000  0.87020000  1.0
  O  O1244  1  0.27161000  0.75655000  0.32426000  1.0
  O  O1245  1  0.24594000  0.70346000  0.27741000  1.0
  O  O1246  1  0.41945000  0.56984000  0.56733000  1.0
  O  O1247  1  0.39696000  0.56378000  0.50265000  1.0
  O  O1248  1  0.23978000  0.36220000  0.72367000  1.0
  O  O1249  1  0.18441000  0.34513000  0.75945000  1.0
  O  O1250  1  0.14490000  0.74650000  0.33150000  1.0
  O  O1251  1  0.31600000  0.68160000  0.33563000  1.0
  O  O1252  1  0.22720000  0.70510000  0.37212000  1.0
  O  O1253  1  0.28000000  0.73950000  0.40176000  1.0
  O  O1254  1  0.12980000  0.79510000  0.27970000  1.0
  O  O1255  1  0.77161000  0.74345000  0.67574000  1.0
  O  O1256  1  0.74594000  0.79654000  0.72259000  1.0
  O  O1257  1  0.91945000  0.93016000  0.43267000  1.0
  O  O1258  1  0.89696000  0.93622000  0.49735000  1.0
  O  O1259  1  0.73978000  0.13780000  0.27633000  1.0
  O  O1260  1  0.68441000  0.15487000  0.24055000  1.0
  O  O1261  1  0.64490000  0.75350000  0.66850000  1.0
  O  O1262  1  0.81600000  0.81840000  0.66437000  1.0
  O  O1263  1  0.72720000  0.79490000  0.62788000  1.0
  O  O1264  1  0.78000000  0.76050000  0.59824000  1.0
  O  O1265  1  0.62980000  0.70490000  0.72030000  1.0
  O  O1266  1  0.22839000  0.24345000  0.82426000  1.0
  O  O1267  1  0.25406000  0.29654000  0.77741000  1.0
  O  O1268  1  0.08055000  0.43016000  0.06733000  1.0
  O  O1269  1  0.10304000  0.43622000  0.00265000  1.0
  O  O1270  1  0.26022000  0.63780000  0.22367000  1.0
  O  O1271  1  0.31559000  0.65487000  0.25945000  1.0
  O  O1272  1  0.35510000  0.25350000  0.83150000  1.0
  O  O1273  1  0.18400000  0.31840000  0.83563000  1.0
  O  O1274  1  0.27280000  0.29490000  0.87212000  1.0
  O  O1275  1  0.22000000  0.26050000  0.90176000  1.0
  O  O1276  1  0.37020000  0.20490000  0.77970000  1.0
  O  O1277  1  0.72839000  0.25655000  0.17574000  1.0
  O  O1278  1  0.75406000  0.20346000  0.22259000  1.0
  O  O1279  1  0.58055000  0.06984000  0.93267000  1.0
  O  O1280  1  0.60304000  0.06378000  0.99735000  1.0
  O  O1281  1  0.76022000  0.86220000  0.77633000  1.0
  O  O1282  1  0.81559000  0.84513000  0.74055000  1.0
  O  O1283  1  0.85510000  0.24650000  0.16850000  1.0
  O  O1284  1  0.68400000  0.18160000  0.16437000  1.0
  O  O1285  1  0.77280000  0.20510000  0.12788000  1.0
  O  O1286  1  0.72000000  0.23950000  0.09824000  1.0
  O  O1287  1  0.87020000  0.29510000  0.22030000  1.0
  O  O1288  1  0.32426000  0.27161000  0.75655000  1.0
  O  O1289  1  0.27741000  0.24594000  0.70346000  1.0
  O  O1290  1  0.56733000  0.41945000  0.56984000  1.0
  O  O1291  1  0.50265000  0.39696000  0.56378000  1.0
  O  O1292  1  0.72367000  0.23978000  0.36220000  1.0
  O  O1293  1  0.75945000  0.18441000  0.34513000  1.0
  O  O1294  1  0.33150000  0.14490000  0.74650000  1.0
  O  O1295  1  0.33563000  0.31600000  0.68160000  1.0
  O  O1296  1  0.37212000  0.22720000  0.70510000  1.0
  O  O1297  1  0.40176000  0.28000000  0.73950000  1.0
  O  O1298  1  0.27970000  0.12980000  0.79510000  1.0
  O  O1299  1  0.67574000  0.77161000  0.74345000  1.0
  O  O1300  1  0.72259000  0.74594000  0.79654000  1.0
  O  O1301  1  0.43267000  0.91945000  0.93016000  1.0
  O  O1302  1  0.49735000  0.89696000  0.93622000  1.0
  O  O1303  1  0.27633000  0.73978000  0.13780000  1.0
  O  O1304  1  0.24055000  0.68441000  0.15487000  1.0
  O  O1305  1  0.66850000  0.64490000  0.75350000  1.0
  O  O1306  1  0.66437000  0.81600000  0.81840000  1.0
  O  O1307  1  0.62788000  0.72720000  0.79490000  1.0
  O  O1308  1  0.59824000  0.78000000  0.76050000  1.0
  O  O1309  1  0.72030000  0.62980000  0.70490000  1.0
  O  O1310  1  0.82426000  0.22839000  0.24345000  1.0
  O  O1311  1  0.77741000  0.25406000  0.29654000  1.0
  O  O1312  1  0.06733000  0.08055000  0.43016000  1.0
  O  O1313  1  0.00265000  0.10304000  0.43622000  1.0
  O  O1314  1  0.22367000  0.26022000  0.63780000  1.0
  O  O1315  1  0.25945000  0.31559000  0.65487000  1.0
  O  O1316  1  0.83150000  0.35510000  0.25350000  1.0
  O  O1317  1  0.83563000  0.18400000  0.31840000  1.0
  O  O1318  1  0.87212000  0.27280000  0.29490000  1.0
  O  O1319  1  0.90176000  0.22000000  0.26050000  1.0
  O  O1320  1  0.77970000  0.37020000  0.20490000  1.0
  O  O1321  1  0.17574000  0.72839000  0.25655000  1.0
  O  O1322  1  0.22259000  0.75406000  0.20346000  1.0
  O  O1323  1  0.93267000  0.58055000  0.06984000  1.0
  O  O1324  1  0.99735000  0.60304000  0.06378000  1.0
  O  O1325  1  0.77633000  0.76022000  0.86220000  1.0
  O  O1326  1  0.74055000  0.81559000  0.84513000  1.0
  O  O1327  1  0.16850000  0.85510000  0.24650000  1.0
  O  O1328  1  0.16437000  0.68400000  0.18160000  1.0
  O  O1329  1  0.12788000  0.77280000  0.20510000  1.0
  O  O1330  1  0.09824000  0.72000000  0.23950000  1.0
  O  O1331  1  0.22030000  0.87020000  0.29510000  1.0
  O  O1332  1  0.57426000  0.50655000  0.47839000  1.0
  O  O1333  1  0.52741000  0.45346000  0.50406000  1.0
  O  O1334  1  0.81733000  0.31984000  0.33055000  1.0
  O  O1335  1  0.75265000  0.31378000  0.35304000  1.0
  O  O1336  1  0.97367000  0.11220000  0.51022000  1.0
  O  O1337  1  0.00945000  0.09513000  0.56559000  1.0
  O  O1338  1  0.58150000  0.49650000  0.60510000  1.0
  O  O1339  1  0.58563000  0.43160000  0.43400000  1.0
  O  O1340  1  0.62212000  0.45510000  0.52280000  1.0
  O  O1341  1  0.65176000  0.48950000  0.47000000  1.0
  O  O1342  1  0.52970000  0.54510000  0.62020000  1.0
  O  O1343  1  0.92574000  0.49345000  0.97839000  1.0
  O  O1344  1  0.97259000  0.54654000  0.00406000  1.0
  O  O1345  1  0.68267000  0.68016000  0.83055000  1.0
  O  O1346  1  0.74735000  0.68622000  0.85304000  1.0
  O  O1347  1  0.52633000  0.88780000  0.01022000  1.0
  O  O1348  1  0.49055000  0.90487000  0.06559000  1.0
  O  O1349  1  0.91850000  0.50350000  0.10510000  1.0
  O  O1350  1  0.91437000  0.56840000  0.93400000  1.0
  O  O1351  1  0.87788000  0.54490000  0.02280000  1.0
  O  O1352  1  0.84824000  0.51050000  0.97000000  1.0
  O  O1353  1  0.97030000  0.45490000  0.12020000  1.0
  O  O1354  1  0.07426000  0.99345000  0.52161000  1.0
  O  O1355  1  0.02741000  0.04654000  0.49594000  1.0
  O  O1356  1  0.31733000  0.18016000  0.66945000  1.0
  O  O1357  1  0.25265000  0.18622000  0.64696000  1.0
  O  O1358  1  0.47367000  0.38780000  0.48978000  1.0
  O  O1359  1  0.50945000  0.40487000  0.43441000  1.0
  O  O1360  1  0.08150000  0.00350000  0.39490000  1.0
  O  O1361  1  0.08563000  0.06840000  0.56600000  1.0
  O  O1362  1  0.12212000  0.04490000  0.47720000  1.0
  O  O1363  1  0.15176000  0.01050000  0.53000000  1.0
  O  O1364  1  0.02970000  0.95490000  0.37980000  1.0
  O  O1365  1  0.42574000  0.00655000  0.02161000  1.0
  O  O1366  1  0.47259000  0.95346000  0.99594000  1.0
  O  O1367  1  0.18267000  0.81984000  0.16945000  1.0
  O  O1368  1  0.24735000  0.81378000  0.14696000  1.0
  O  O1369  1  0.02633000  0.61220000  0.98978000  1.0
  O  O1370  1  0.99055000  0.59513000  0.93441000  1.0
  O  O1371  1  0.41850000  0.99650000  0.89490000  1.0
  O  O1372  1  0.41437000  0.93160000  0.06600000  1.0
  O  O1373  1  0.37788000  0.95510000  0.97720000  1.0
  O  O1374  1  0.34824000  0.98950000  0.03000000  1.0
  O  O1375  1  0.47030000  0.04510000  0.87980000  1.0
  O  O1376  1  0.00655000  0.02161000  0.42574000  1.0
  O  O1377  1  0.95346000  0.99594000  0.47259000  1.0
  O  O1378  1  0.81984000  0.16945000  0.18267000  1.0
  O  O1379  1  0.81378000  0.14696000  0.24735000  1.0
  O  O1380  1  0.61220000  0.98978000  0.02633000  1.0
  O  O1381  1  0.59513000  0.93441000  0.99055000  1.0
  O  O1382  1  0.99650000  0.89490000  0.41850000  1.0
  O  O1383  1  0.93160000  0.06600000  0.41437000  1.0
  O  O1384  1  0.95510000  0.97720000  0.37788000  1.0
  O  O1385  1  0.98950000  0.03000000  0.34824000  1.0
  O  O1386  1  0.04510000  0.87980000  0.47030000  1.0
  O  O1387  1  0.99345000  0.52161000  0.07426000  1.0
  O  O1388  1  0.04654000  0.49594000  0.02741000  1.0
  O  O1389  1  0.18016000  0.66945000  0.31733000  1.0
  O  O1390  1  0.18622000  0.64696000  0.25265000  1.0
  O  O1391  1  0.38780000  0.48978000  0.47367000  1.0
  O  O1392  1  0.40487000  0.43441000  0.50945000  1.0
  O  O1393  1  0.00350000  0.39490000  0.08150000  1.0
  O  O1394  1  0.06840000  0.56600000  0.08563000  1.0
  O  O1395  1  0.04490000  0.47720000  0.12212000  1.0
  O  O1396  1  0.01050000  0.53000000  0.15176000  1.0
  O  O1397  1  0.95490000  0.37980000  0.02970000  1.0
  O  O1398  1  0.49345000  0.97839000  0.92574000  1.0
  O  O1399  1  0.54654000  0.00406000  0.97259000  1.0
  O  O1400  1  0.68016000  0.83055000  0.68267000  1.0
  O  O1401  1  0.68622000  0.85304000  0.74735000  1.0
  O  O1402  1  0.88780000  0.01022000  0.52633000  1.0
  O  O1403  1  0.90487000  0.06559000  0.49055000  1.0
  O  O1404  1  0.50350000  0.10510000  0.91850000  1.0
  O  O1405  1  0.56840000  0.93400000  0.91437000  1.0
  O  O1406  1  0.54490000  0.02280000  0.87788000  1.0
  O  O1407  1  0.51050000  0.97000000  0.84824000  1.0
  O  O1408  1  0.45490000  0.12020000  0.97030000  1.0
  O  O1409  1  0.50655000  0.47839000  0.57426000  1.0
  O  O1410  1  0.45346000  0.50406000  0.52741000  1.0
  O  O1411  1  0.31984000  0.33055000  0.81733000  1.0
  O  O1412  1  0.31378000  0.35304000  0.75265000  1.0
  O  O1413  1  0.11220000  0.51022000  0.97367000  1.0
  O  O1414  1  0.09513000  0.56559000  0.00945000  1.0
  O  O1415  1  0.49650000  0.60510000  0.58150000  1.0
  O  O1416  1  0.43160000  0.43400000  0.58563000  1.0
  O  O1417  1  0.45510000  0.52280000  0.62212000  1.0
  O  O1418  1  0.48950000  0.47000000  0.65176000  1.0
  O  O1419  1  0.54510000  0.62020000  0.52970000  1.0
  O  O1420  1  0.52161000  0.07426000  0.99345000  1.0
  O  O1421  1  0.49594000  0.02741000  0.04654000  1.0
  O  O1422  1  0.66945000  0.31733000  0.18016000  1.0
  O  O1423  1  0.64696000  0.25265000  0.18622000  1.0
  O  O1424  1  0.48978000  0.47367000  0.38780000  1.0
  O  O1425  1  0.43441000  0.50945000  0.40487000  1.0
  O  O1426  1  0.39490000  0.08150000  0.00350000  1.0
  O  O1427  1  0.56600000  0.08563000  0.06840000  1.0
  O  O1428  1  0.47720000  0.12212000  0.04490000  1.0
  O  O1429  1  0.53000000  0.15176000  0.01050000  1.0
  O  O1430  1  0.37980000  0.02970000  0.95490000  1.0
  O  O1431  1  0.02161000  0.42574000  0.00655000  1.0
  O  O1432  1  0.99594000  0.47259000  0.95346000  1.0
  O  O1433  1  0.16945000  0.18267000  0.81984000  1.0
  O  O1434  1  0.14696000  0.24735000  0.81378000  1.0
  O  O1435  1  0.98978000  0.02633000  0.61220000  1.0
  O  O1436  1  0.93441000  0.99055000  0.59513000  1.0
  O  O1437  1  0.89490000  0.41850000  0.99650000  1.0
  O  O1438  1  0.06600000  0.41437000  0.93160000  1.0
  O  O1439  1  0.97720000  0.37788000  0.95510000  1.0
  O  O1440  1  0.03000000  0.34824000  0.98950000  1.0
  O  O1441  1  0.87980000  0.47030000  0.04510000  1.0
  O  O1442  1  0.47839000  0.57426000  0.50655000  1.0
  O  O1443  1  0.50406000  0.52741000  0.45346000  1.0
  O  O1444  1  0.33055000  0.81733000  0.31984000  1.0
  O  O1445  1  0.35304000  0.75265000  0.31378000  1.0
  O  O1446  1  0.51022000  0.97367000  0.11220000  1.0
  O  O1447  1  0.56559000  0.00945000  0.09513000  1.0
  O  O1448  1  0.60510000  0.58150000  0.49650000  1.0
  O  O1449  1  0.43400000  0.58563000  0.43160000  1.0
  O  O1450  1  0.52280000  0.62212000  0.45510000  1.0
  O  O1451  1  0.47000000  0.65176000  0.48950000  1.0
  O  O1452  1  0.62020000  0.52970000  0.54510000  1.0
  O  O1453  1  0.97839000  0.92574000  0.49345000  1.0
  O  O1454  1  0.00406000  0.97259000  0.54654000  1.0
  O  O1455  1  0.83055000  0.68267000  0.68016000  1.0
  O  O1456  1  0.85304000  0.74735000  0.68622000  1.0
  O  O1457  1  0.01022000  0.52633000  0.88780000  1.0
  O  O1458  1  0.06559000  0.49055000  0.90487000  1.0
  O  O1459  1  0.10510000  0.91850000  0.50350000  1.0
  O  O1460  1  0.93400000  0.91437000  0.56840000  1.0
  O  O1461  1  0.02280000  0.87788000  0.54490000  1.0
  O  O1462  1  0.97000000  0.84824000  0.51050000  1.0
  O  O1463  1  0.12020000  0.97030000  0.45490000  1.0
  O  O1464  1  0.78729000  0.28729000  0.21271000  1.0
  O  O1465  1  0.71346000  0.21346000  0.28654000  1.0
  O  O1466  1  0.71271000  0.71271000  0.71271000  1.0
  O  O1467  1  0.78654000  0.78654000  0.78654000  1.0
  O  O1468  1  0.21271000  0.78729000  0.28729000  1.0
  O  O1469  1  0.28654000  0.71346000  0.21346000  1.0
  O  O1470  1  0.28729000  0.21271000  0.78729000  1.0
  O  O1471  1  0.21346000  0.28654000  0.71346000  1.0
  O  O1472  1  0.53729000  0.53729000  0.53729000  1.0
  O  O1473  1  0.46346000  0.46346000  0.46346000  1.0
  O  O1474  1  0.96271000  0.46271000  0.03729000  1.0
  O  O1475  1  0.03654000  0.53654000  0.96346000  1.0
  O  O1476  1  0.03729000  0.96271000  0.46271000  1.0
  O  O1477  1  0.96346000  0.03654000  0.53654000  1.0
  O  O1478  1  0.46271000  0.03729000  0.96271000  1.0
  O  O1479  1  0.53654000  0.96346000  0.03654000  1.0
